/*--------------------------------*- C++ -*----------------------------------*\
| =========                 |                                                 |
| \\      /  F ield         | OpenFOAM: The Open Source CFD Toolbox           |
|  \\    /   O peration     | Version:  2306                                  |
|   \\  /    A nd           | Website:  www.openfoam.com                      |
|    \\/     M anipulation  |                                                 |
\*---------------------------------------------------------------------------*/
FoamFile
{
    version     2.0;
    format      ascii;
    arch        "LSB;label=32;scalar=64";
    class       featureEdgeMesh;
    location    "constant/triSurface";
    object      artery.eMesh;
}
// * * * * * * * * * * * * * * * * * * * * * * * * * * * * * * * * * * * * * //


// points:

18979
(
(-0.07449893 0.09634617 -0.0555754)
(-0.07596882 0.09641045 -0.05560429)
(-0.07736369 0.09644759 -0.05529704)
(-0.07854972 0.09631589 -0.05502767)
(-0.07935483 0.09665209 -0.05400966)
(-0.09420336 0.0848142 -0.04833186)
(-0.07592232 0.0672246 -0.05043903)
(-0.07464363 0.06718848 -0.05060331)
(-0.06861304 0.09542338 -0.006079858)
(-0.09112696 0.07163571 -0.04675437)
(-0.09002158 0.07091033 -0.04723545)
(-0.08863047 0.07023545 -0.04752949)
(-0.07041749 0.0678855 -0.05183163)
(-0.06436133 0.07479303 -0.05430123)
(-0.0696728 0.09304599 -0.05533429)
(-0.07327852 0.09627415 -0.05508964)
(-0.07516851 0.0969931 -0.05462198)
(-0.07205311 0.06743442 -0.05115773)
(-0.06784723 0.06939342 -0.05323535)
(-0.06665866 0.07055154 -0.05336803)
(-0.06573188 0.07175772 -0.05330278)
(-0.06489443 0.07322931 -0.05309008)
(-0.07646597 0.09707153 -0.05449246)
(-0.07988467 0.09685091 -0.05290759)
(-0.06399275 0.07675063 -0.05474837)
(-0.06989901 0.09402346 -0.05415246)
(-0.082407 0.09584324 -0.05091822)
(-0.08895138 0.0908726 -0.04832793)
(-0.09009887 0.0899125 -0.0483624)
(-0.09125789 0.08877247 -0.04831497)
(-0.09226404 0.08758768 -0.04819805)
(-0.09252939 0.08634934 -0.04686955)
(-0.08494106 0.0690915 -0.04748324)
(-0.08400321 0.06916967 -0.04591443)
(-0.07851771 0.06776035 -0.0490081)
(-0.06432318 0.07463873 -0.0521598)
(-0.09422208 0.07947597 -0.04514718)
(-0.09428878 0.07606809 -0.04593126)
(-0.09153071 0.07228637 -0.04550517)
(-0.09050035 0.07146611 -0.04563671)
(-0.08918411 0.0706699 -0.04587499)
(-0.08760198 0.07000893 -0.04599106)
(-0.06954365 0.06851384 -0.05054045)
(-0.06868254 0.06881949 -0.05191082)
(-0.06736992 0.06989821 -0.05188696)
(-0.06628217 0.07111061 -0.05188635)
(-0.0654583 0.07235896 -0.05177818)
(-0.06490675 0.07341 -0.05165553)
(-0.09037237 0.08895053 -0.04698554)
(-0.09155799 0.08771789 -0.04705252)
(-0.07775552 0.06801576 -0.04751042)
(-0.07307116 0.06777428 -0.04857381)
(-0.07005809 0.09454418 -0.05296416)
(-0.07168642 0.09588222 -0.05312312)
(-0.09376162 0.07749587 -0.04447138)
(-0.06826346 0.06941744 -0.05042517)
(-0.08075528 0.09614561 -0.04952115)
(-0.08179466 0.09589889 -0.04987394)
(-0.08276126 0.09533753 -0.0494358)
(-0.08384783 0.09463115 -0.04901529)
(-0.08163999 0.09545571 -0.04853144)
(-0.08511008 0.09294841 -0.04677897)
(-0.08908954 0.09008618 -0.04689442)
(-0.08797169 0.09126058 -0.04743306)
(-0.09163684 0.08680298 -0.04590272)
(-0.0934451 0.08476901 -0.04673669)
(-0.09337719 0.08082247 -0.04415436)
(-0.09356734 0.07570685 -0.04483456)
(-0.09278267 0.0745993 -0.04437965)
(-0.09183675 0.07351964 -0.04404634)
(-0.09067372 0.07235056 -0.04403198)
(-0.08948238 0.07143009 -0.04418788)
(-0.08821253 0.07064718 -0.04454345)
(-0.08696342 0.07015619 -0.04470591)
(-0.08943483 0.08902244 -0.0455921)
(-0.09062152 0.08790586 -0.04574821)
(-0.09342726 0.07913397 -0.04391181)
(-0.06370797 0.08601889 -0.05139485)
(-0.09088606 0.08655291 -0.04446752)
(-0.09295159 0.07618113 -0.04370491)
(-0.08703158 0.09139779 -0.04625697)
(-0.09106086 0.08507945 -0.04334074)
(-0.09296823 0.08351193 -0.04486289)
(-0.09287246 0.0822917 -0.04402371)
(-0.09252808 0.07973558 -0.04283161)
(-0.08968457 0.08784489 -0.04427999)
(-0.09280333 0.07779873 -0.0431375)
(-0.09079064 0.07381053 -0.04270438)
(-0.08948226 0.07258948 -0.04271213)
(-0.08835509 0.07154747 -0.04311714)
(-0.09175554 0.07660714 -0.04225006)
(-0.09192632 0.07494963 -0.0430682)
(-0.09098954 0.07527335 -0.04203957)
(-0.09123036 0.0829625 -0.04221965)
(-0.08411878 0.07033608 -0.04302558)
(-0.09090491 0.0840832 -0.0424332)
(-0.06202729 0.09063844 -0.04371949)
(-0.05269215 0.08505812 -0.009893576)
(-0.05288357 0.0851651 -0.008549601)
(-0.06354944 0.09412576 -0.04001936)
(-0.06469862 0.09484705 -0.03985732)
(-0.06583126 0.0953705 -0.03975823)
(-0.06679647 0.0959655 -0.03876416)
(-0.05773955 0.08456001 -0.03948366)
(-0.07296051 0.09646401 -0.03573725)
(-0.07151694 0.09634122 -0.03767683)
(-0.06955059 0.09688444 -0.03642515)
(-0.05702458 0.0886263 -0.03624902)
(-0.05935184 0.09242487 -0.03597732)
(-0.06161891 0.09448303 -0.03574139)
(-0.07419793 0.09617742 -0.03468201)
(-0.07275769 0.09680459 -0.03441646)
(-0.07502435 0.09546603 -0.03537215)
(-0.07582324 0.09525955 -0.03403679)
(-0.05620639 0.08005998 -0.03639583)
(-0.05663901 0.08565784 -0.03723474)
(-0.06731682 0.09668331 -0.03624631)
(-0.07377678 0.06977885 -0.03577521)
(-0.05538037 0.08097079 -0.035406)
(-0.06010435 0.09363505 -0.03498761)
(-0.06561867 0.0963989 -0.03562961)
(-0.05611196 0.08747716 -0.03523331)
(-0.05550395 0.08435529 -0.03555109)
(-0.057255 0.08972339 -0.03560806)
(-0.0579428 0.09105603 -0.03533256)
(-0.06796862 0.09720434 -0.03392889)
(-0.07180551 0.09695911 -0.03491994)
(-0.06878679 0.06908286 -0.03490665)
(-0.05633449 0.07800191 -0.03562622)
(-0.05661968 0.08891055 -0.03507069)
(-0.05868794 0.0926428 -0.03413529)
(-0.07482512 0.09612365 -0.03268466)
(-0.07614364 0.09526987 -0.03222374)
(-0.06716895 0.06931973 -0.03480121)
(-0.05571742 0.07941387 -0.03546059)
(-0.05500998 0.08000184 -0.03432517)
(-0.05499505 0.08253566 -0.03469745)
(-0.05534868 0.08569487 -0.03453635)
(-0.05531457 0.07828389 -0.0340239)
(-0.05471771 0.08110419 -0.03380161)
(-0.05611059 0.08879402 -0.03376824)
(-0.05541046 0.08731659 -0.03322122)
(-0.0595274 0.09393616 -0.0328808)
(-0.05821212 0.07466774 -0.03503324)
(-0.05920952 0.07330029 -0.03435068)
(-0.05670598 0.07537522 -0.03372706)
(-0.05618483 0.07682152 -0.03451506)
(-0.05481707 0.08426882 -0.03363722)
(-0.05685663 0.08999031 -0.03426954)
(-0.05646689 0.09015743 -0.03268835)
(-0.05742916 0.09143756 -0.03331835)
(-0.06734695 0.09738524 -0.03228921)
(-0.06908458 0.0974787 -0.03242013)
(-0.05566173 0.08873177 -0.03209094)
(-0.06119887 0.09559207 -0.03106021)
(-0.07368658 0.09668871 -0.03175662)
(-0.07539073 0.0958146 -0.03161519)
(-0.07720302 0.09431887 -0.03148134)
(-0.07801037 0.09334606 -0.03077828)
(-0.05790755 0.07385021 -0.03338328)
(-0.05467315 0.0796912 -0.03299461)
(-0.0544994 0.08260745 -0.03296903)
(-0.05479101 0.0856901 -0.03241417)
(-0.06516024 0.09677571 -0.03328747)
(-0.06847371 0.09766458 -0.03066447)
(-0.05897807 0.07270436 -0.03276701)
(-0.05557849 0.07683397 -0.03306436)
(-0.05485164 0.07824722 -0.03227677)
(-0.05433531 0.08096741 -0.03208269)
(-0.05498593 0.08717097 -0.03142991)
(-0.06355778 0.09670346 -0.03095032)
(-0.06973014 0.0977352 -0.02928735)
(-0.0771783 0.09426612 -0.03021807)
(-0.05995044 0.07176656 -0.03173659)
(-0.05437812 0.08399078 -0.03178895)
(-0.06677692 0.09756708 -0.03037623)
(-0.05707339 0.07429735 -0.03238079)
(-0.05610421 0.07542156 -0.03196413)
(-0.05519565 0.07682242 -0.03129926)
(-0.05528936 0.08856396 -0.03038765)
(-0.05763322 0.09253959 -0.03102476)
(-0.06795602 0.09781615 -0.02885447)
(-0.06124996 0.07120051 -0.03239769)
(-0.05438251 0.07955019 -0.03142401)
(-0.0544053 0.08548249 -0.03046947)
(-0.06485189 0.09727731 -0.0297664)
(-0.07849191 0.09253461 -0.0298466)
(-0.05409568 0.08092451 -0.03069943)
(-0.05467404 0.08707783 -0.02955565)
(-0.06318672 0.09684499 -0.0291375)
(-0.06623651 0.09770139 -0.02842745)
(-0.05578277 0.07544304 -0.030397)
(-0.05426343 0.08583955 -0.02887082)
(-0.05555585 0.08951288 -0.02949238)
(-0.0592893 0.09458967 -0.02933636)
(-0.06160653 0.09621383 -0.0286546)
(-0.05876655 0.07235412 -0.03070159)
(-0.05755967 0.07326005 -0.03018088)
(-0.05801473 0.09347597 -0.02868677)
(-0.05600737 0.09089068 -0.02732986)
(-0.05689582 0.09218839 -0.02799495)
(-0.05616432 0.0742787 -0.0277741)
(-0.05579224 0.09073572 -0.02580084)
(-0.0660973 0.09792559 -0.02336868)
(-0.05562197 0.09061857 -0.02428432)
(-0.06891342 0.06931198 -0.02648629)
(-0.07048561 0.06968522 -0.0254738)
(-0.07188255 0.07026508 -0.02463739)
(-0.05493777 0.07490369 -0.0223772)
(-0.07324871 0.07104421 -0.0247054)
(-0.07629941 0.07379884 -0.02396489)
(-0.07421684 0.07176462 -0.0239907)
(-0.06274782 0.09699865 -0.01701557)
(-0.07519647 0.07267342 -0.02316684)
(-0.05889826 0.09373602 -0.03166775)
(-0.07298961 0.07094659 -0.02329635)
(-0.06457594 0.09764604 -0.02353379)
(-0.05385414 0.07588815 -0.01824479)
(-0.05259993 0.08100519 -0.01830003)
(-0.05326484 0.0860259 -0.01639303)
(-0.07408149 0.07177246 -0.02241514)
(-0.07818216 0.09033672 -0.01738887)
(-0.07761002 0.07581761 -0.02203185)
(-0.05245535 0.0797464 -0.01596601)
(-0.07929341 0.08712962 -0.01743761)
(-0.07597236 0.09341565 -0.0158601)
(-0.0775159 0.09148264 -0.0167087)
(-0.07965842 0.08377377 -0.01809277)
(-0.07902186 0.08807749 -0.01685182)
(-0.06139044 0.09606528 -0.01087786)
(-0.06262556 0.09660149 -0.01164815)
(-0.07000329 0.09686372 -0.0143492)
(-0.07936948 0.0806953 -0.01885297)
(-0.07906705 0.07937695 -0.01999887)
(-0.07876546 0.07868835 -0.01865843)
(-0.0578033 0.09369797 -0.0110925)
(-0.05891206 0.09463444 -0.01099361)
(-0.05874099 0.09433343 -0.009719918)
(-0.05725136 0.09296128 -0.009494504)
(-0.05999841 0.09527728 -0.01024623)
(-0.06418172 0.09678262 -0.01058436)
(-0.0659451 0.09704681 -0.01146109)
(-0.07799742 0.09052494 -0.01599066)
(-0.07743371 0.07589481 -0.01889625)
(-0.07744221 0.07571128 -0.02017463)
(-0.07681803 0.07489267 -0.01947506)
(-0.05403085 0.08836716 -0.01130306)
(-0.05460552 0.08944498 -0.009895885)
(-0.05344588 0.08709251 -0.01077352)
(-0.05631491 0.09199314 -0.01006288)
(-0.07812866 0.07718668 -0.01869599)
(-0.07792519 0.0765816 -0.01978606)
(-0.05231452 0.07849187 -0.01210324)
(-0.05203819 0.0807587 -0.01124845)
(-0.05530882 0.09032615 -0.00862843)
(-0.06124765 0.09563457 -0.009121701)
(-0.06278164 0.09632111 -0.009728682)
(-0.06839277 0.09663098 -0.01052785)
(-0.06714728 0.09672014 -0.01013068)
(-0.05378775 0.08785218 -0.009598526)
(-0.05724867 0.09225745 -0.007682171)
(-0.05852772 0.09362532 -0.008093141)
(-0.05978326 0.09470258 -0.00856456)
(-0.06396981 0.09622274 -0.008719919)
(-0.0656209 0.09660921 -0.009463985)
(-0.05216672 0.08275843 -0.01010533)
(-0.0545631 0.08891306 -0.008160631)
(-0.05202891 0.08154399 -0.01007127)
(-0.05228809 0.08226593 -0.00865642)
(-0.05201931 0.0802517 -0.0100201)
(-0.05223478 0.08067992 -0.008796574)
(-0.05384918 0.08729929 -0.007899356)
(-0.05367607 0.07485286 -0.01177932)
(-0.05312779 0.08462831 -0.007510521)
(-0.06554655 0.06816343 -0.01486356)
(-0.06450468 0.06800672 -0.01411305)
(-0.05282877 0.07676725 -0.01006849)
(-0.06127139 0.06848314 -0.01328655)
(-0.05909275 0.0694605 -0.01283689)
(-0.05828614 0.06979951 -0.01197805)
(-0.05370606 0.07490974 -0.01053001)
(-0.06672312 0.0682589 -0.01487446)
(-0.05985967 0.06886471 -0.01189752)
(-0.05721935 0.07057524 -0.01128878)
(-0.05686372 0.07089493 -0.0101104)
(-0.07429597 0.09391208 -0.008167034)
(-0.06021424 0.09266806 -0.004078647)
(-0.05656134 0.091196 -0.03031784)
(-0.09458038 0.08218378 -0.04676225)
(-0.06205899 0.09224984 -0.04136823)
(-0.07191716 0.06815253 -0.04807545)
(-0.05891382 0.07246134 -0.03175207)
(-0.09314954 0.08412927 -0.0456237)
(-0.09353001 0.08221871 -0.04495578)
(-0.05878259 0.09474579 -0.01975084)
(-0.08409376 0.09326038 -0.04617724)
(-0.1292962 0.04929369 -0.076975)
(-0.08395474 0.07143317 -0.03892884)
(-0.08402609 0.07180302 -0.03849849)
(-0.08416431 0.07219277 -0.03812921)
(-0.08436877 0.07271715 -0.03776088)
(-0.08842022 0.07726614 -0.03725959)
(-0.08881062 0.07700916 -0.03687043)
(-0.0886431 0.07764443 -0.0375804)
(-0.08897229 0.07754998 -0.0372833)
(-0.090459 0.07497916 -0.04020873)
(-0.08870694 0.07645191 -0.03655972)
(-0.08911613 0.0778705 -0.03773164)
(-0.08939891 0.07731605 -0.03691851)
(-0.08960996 0.0777331 -0.03735764)
(-0.08970547 0.07796516 -0.03804628)
(-0.09008873 0.07755551 -0.03894869)
(-0.09049174 0.07534097 -0.04012914)
(-0.0900854 0.07745273 -0.03709686)
(-0.09028234 0.07768404 -0.0376638)
(-0.09023904 0.07773247 -0.03842573)
(-0.09071819 0.07682486 -0.03918956)
(-0.09103037 0.07595426 -0.03942679)
(-0.09080373 0.07565244 -0.0398222)
(-0.09040143 0.07707759 -0.03692056)
(-0.09060554 0.07722815 -0.03737057)
(-0.09078164 0.07723738 -0.03805624)
(-0.09097716 0.07680742 -0.03864119)
(-0.08943316 0.07251388 -0.03495229)
(-0.09075866 0.07676433 -0.03712346)
(-0.09087674 0.07689504 -0.03759294)
(-0.09106158 0.07664831 -0.03801291)
(-0.08952862 0.07199926 -0.03496299)
(-0.0899338 0.0728626 -0.0346847)
(-0.09021136 0.07043453 -0.03573216)
(-0.09009257 0.07073241 -0.03540129)
(-0.08994985 0.07119656 -0.03506243)
(-0.08988536 0.0717239 -0.03481274)
(-0.08990464 0.07222651 -0.03468425)
(-0.09057178 0.07052518 -0.03536389)
(-0.09048483 0.070906 -0.03499254)
(-0.09035032 0.07146485 -0.03469323)
(-0.09027572 0.07192862 -0.03457629)
(-0.09048071 0.07243803 -0.03448781)
(-0.09086397 0.07120191 -0.03464865)
(-0.0907523 0.07179751 -0.0344714)
(-0.09116527 0.07227025 -0.03437434)
(-0.09104922 0.07285367 -0.03447407)
(-0.0913488 0.07161086 -0.03440453)
(-0.09194664 0.0714959 -0.0343606)
(-0.09235162 0.07194007 -0.0342895)
(-0.09281202 0.07187087 -0.03429591)
(-0.09274203 0.07232839 -0.03430917)
(-0.09266451 0.07378807 -0.03492247)
(-0.09364644 0.07427416 -0.03779105)
(-0.09383224 0.0740175 -0.03822193)
(-0.09440315 0.0729333 -0.03898159)
(-0.09309844 0.07117707 -0.03440494)
(-0.09318118 0.07163862 -0.03433504)
(-0.09319742 0.07212885 -0.03432464)
(-0.09319773 0.07263136 -0.03438697)
(-0.09316216 0.07320435 -0.0345712)
(-0.09317007 0.07364354 -0.0348429)
(-0.0930443 0.07403837 -0.03521695)
(-0.09393006 0.07434987 -0.03729983)
(-0.09437532 0.07384797 -0.03821658)
(-0.09397043 0.06928036 -0.03575335)
(-0.09296667 0.06963045 -0.03544645)
(-0.09364858 0.07244873 -0.03441782)
(-0.09368254 0.07290399 -0.03452658)
(-0.09368286 0.07341628 -0.03476185)
(-0.09365701 0.07387805 -0.03514394)
(-0.09355773 0.07423035 -0.03563473)
(-0.09408224 0.07434858 -0.03648447)
(-0.09420164 0.07413608 -0.03775076)
(-0.09443749 0.06918159 -0.03594029)
(-0.09428188 0.06931689 -0.03567442)
(-0.09427213 0.06948066 -0.03544086)
(-0.09457208 0.06937082 -0.03562557)
(-0.09417185 0.07432983 -0.03692601)
(-0.09740524 0.06804415 -0.03889195)
(-0.09789776 0.06820089 -0.03871623)
(-0.1218438 0.04800007 -0.06728697)
(-0.09759835 0.07147115 -0.04011456)
(-0.09824301 0.07166002 -0.03942336)
(-0.09955892 0.06898149 -0.03914444)
(-0.09985131 0.06891038 -0.0396259)
(-0.1005251 0.07019518 -0.04432293)
(-0.1008669 0.07003098 -0.04490685)
(-0.1282997 0.04723499 -0.07624106)
(-0.1119124 0.0632432 -0.04953026)
(-0.1030292 0.06474423 -0.04825641)
(-0.103605 0.0652466 -0.04648583)
(-0.1040846 0.06441624 -0.04869777)
(-0.1038545 0.06827413 -0.04861189)
(-0.1040436 0.06778728 -0.04943136)
(-0.1042434 0.06803965 -0.0489711)
(-0.1048131 0.06774338 -0.0492862)
(-0.125594 0.04931664 -0.07217342)
(-0.105483 0.06752755 -0.04927724)
(-0.1070245 0.06324381 -0.04934248)
(-0.1072869 0.06353488 -0.05047584)
(-0.1073974 0.06313355 -0.04886701)
(-0.1088818 0.06489662 -0.05089973)
(-0.1096983 0.06264473 -0.05171477)
(-0.1112982 0.0634718 -0.05165672)
(-0.1133092 0.05927594 -0.04908679)
(-0.1161426 0.05694773 -0.04996568)
(-0.1422822 0.07736291 -0.09954591)
(-0.1177116 0.05492442 -0.05079281)
(-0.1178907 0.05540769 -0.05088063)
(-0.1181114 0.05398642 -0.05130646)
(-0.1184206 0.05374587 -0.05161827)
(-0.1186807 0.05339338 -0.05198812)
(-0.1188979 0.05389599 -0.05195531)
(-0.1192573 0.05236866 -0.05308969)
(-0.1196235 0.0510911 -0.05438834)
(-0.1192482 0.04810436 -0.05991185)
(-0.1207991 0.04744773 -0.06046844)
(-0.1218912 0.04734509 -0.06131904)
(-0.09878495 0.0676899 -0.04036921)
(-0.1324949 0.05065685 -0.08320461)
(-0.134168 0.05520242 -0.09025168)
(-0.1346358 0.05587512 -0.09067338)
(-0.1344792 0.0554119 -0.09056796)
(-0.134625 0.05497782 -0.09046884)
(-0.1350105 0.05540298 -0.09076653)
(-0.1350749 0.05490876 -0.09058045)
(-0.1354088 0.05468026 -0.09042229)
(-0.1358198 0.05463888 -0.09014056)
(-0.1357075 0.05430557 -0.08938442)
(-0.1354208 0.05508232 -0.09069268)
(-0.1358755 0.05503387 -0.0905346)
(-0.1352506 0.05757312 -0.08929262)
(-0.1361805 0.05692981 -0.08899079)
(-0.1365427 0.05675888 -0.08907486)
(-0.1359689 0.05747047 -0.08909182)
(-0.1365597 0.05729299 -0.08911792)
(-0.1369253 0.05693133 -0.08935928)
(-0.1364122 0.05778409 -0.08925084)
(-0.1360086 0.05933286 -0.09240294)
(-0.1362291 0.05868367 -0.09244136)
(-0.1364609 0.05917402 -0.09279028)
(-0.1368449 0.05863316 -0.09268499)
(-0.1379836 0.05838097 -0.09146081)
(-0.1390831 0.06274172 -0.09388533)
(-0.1348738 0.05335139 -0.08776948)
(-0.129421 0.04836294 -0.07689064)
(-0.1254999 0.04712061 -0.07395291)
(-0.1213795 0.04831415 -0.06635573)
(-0.1080895 0.06263547 -0.05059843)
(-0.1176227 0.05202902 -0.05323074)
(-0.09927399 0.06711422 -0.04244417)
(-0.108803 0.04638746 -0.06591842)
(-0.1071877 0.04693354 -0.06914537)
(-0.1085112 0.05150248 -0.06031237)
(-0.1082351 0.05423117 -0.05864517)
(-0.1100846 0.05550692 -0.05746493)
(-0.1093001 0.05600779 -0.05611885)
(-0.1084883 0.04623137 -0.06541554)
(-0.1090432 0.05109906 -0.0632935)
(-0.1067393 0.04650946 -0.06669948)
(-0.107343 0.04614421 -0.0655743)
(-0.1080431 0.04611235 -0.06529355)
(-0.1093998 0.04953053 -0.06466129)
(-0.1079148 0.04892377 -0.06347665)
(-0.1098998 0.04983789 -0.06430964)
(-0.1093538 0.05013448 -0.06446569)
(-0.1099374 0.04883679 -0.06380364)
(-0.1104612 0.05001612 -0.06231319)
(-0.1105444 0.05045132 -0.0624524)
(-0.1104711 0.05073879 -0.0627376)
(-0.1100159 0.05574287 -0.05776884)
(-0.1100285 0.05510251 -0.05723363)
(-0.1082374 0.05478798 -0.0563376)
(-0.1073285 0.0576485 -0.05674649)
(-0.1070551 0.05712757 -0.05644997)
(-0.1074319 0.05810462 -0.05649099)
(-0.1079161 0.05755292 -0.05431236)
(-0.1083028 0.05808745 -0.05427175)
(-0.1073436 0.06123248 -0.05358813)
(-0.1073751 0.06042961 -0.05291776)
(-0.1073931 0.06103566 -0.05295067)
(-0.1046853 0.06163306 -0.05321958)
(-0.1041053 0.06379709 -0.05272146)
(-0.103429 0.06426445 -0.05193394)
(-0.1037569 0.06476742 -0.05209431)
(-0.1032495 0.06453768 -0.05138727)
(-0.1047624 0.06589204 -0.05151867)
(-0.1051764 0.06597382 -0.05117851)
(-0.1294071 0.05152488 -0.09159777)
(-0.1319615 0.06116731 -0.1027569)
(-0.1289417 0.05582271 -0.09587374)
(-0.1289165 0.05390689 -0.09448316)
(-0.1314883 0.05067299 -0.08585189)
(-0.1295531 0.04917657 -0.07729022)
(-0.1362409 0.07312128 -0.103959)
(-0.1371978 0.06385499 -0.09843685)
(-0.1374845 0.07079469 -0.1012196)
(-0.1350562 0.07650746 -0.1089823)
(-0.1367176 0.07326215 -0.1055128)
(-0.1368346 0.07186245 -0.1039035)
(-0.1379245 0.07185923 -0.1040092)
(-0.1374218 0.06219728 -0.09730931)
(-0.1371103 0.06024913 -0.09083468)
(-0.1368056 0.06036611 -0.09115451)
(-0.09501281 0.06953859 -0.03549562)
(-0.120331 0.1288034 -0.1322748)
(-0.1203958 0.1279922 -0.1302062)
(-0.1193406 0.1027826 -0.05177788)
(-0.121046 0.1171726 -0.06748483)
(-0.1186413 0.1341694 -0.1278863)
(-0.1215845 0.1364317 -0.1232499)
(-0.1198799 0.1381114 -0.1218689)
(-0.1228786 0.1356921 -0.1174899)
(-0.1203694 0.1374837 -0.1186419)
(-0.1202206 0.1368067 -0.1177932)
(-0.1203107 0.1371388 -0.1176867)
(-0.1210126 0.1300623 -0.1321224)
(-0.1198793 0.1295917 -0.1320188)
(-0.1216026 0.1288646 -0.0922192)
(-0.1209446 0.1212586 -0.06998292)
(-0.1215558 0.1170617 -0.06790391)
(-0.1208032 0.1160476 -0.0634118)
(-0.12218 0.1121739 -0.0586828)
(-0.1225636 0.1114494 -0.05836195)
(-0.1226679 0.1074623 -0.05531071)
(-0.1205991 0.1093563 -0.05606476)
(-0.1220714 0.09999743 -0.04986399)
(-0.1156782 0.08953291 -0.04454688)
(-0.1140246 0.0882255 -0.04159942)
(-0.1104296 0.08456764 -0.03973078)
(-0.1097653 0.0816746 -0.04111406)
(-0.1204235 0.1371873 -0.1169605)
(-0.1154754 0.083604 -0.0420219)
(-0.09370843 0.06913105 -0.03614538)
(-0.1038836 0.07544219 -0.03438985)
(-0.1039059 0.07491755 -0.03433205)
(-0.1044271 0.07575351 -0.03445649)
(-0.1056849 0.07427336 -0.03511966)
(-0.1203585 0.1329952 -0.1276837)
(-0.105659 0.07397641 -0.03559515)
(-0.1067261 0.07490527 -0.03560222)
(-0.1065461 0.07456409 -0.03599841)
(-0.1204665 0.133503 -0.1271847)
(-0.1180607 0.09562757 -0.0461548)
(-0.1104043 0.08414023 -0.0379497)
(-0.1105723 0.08462982 -0.03890925)
(-0.1127532 0.0845747 -0.03817708)
(-0.1190463 0.1376386 -0.1234736)
(-0.1157581 0.08372569 -0.04125576)
(-0.1160888 0.08453669 -0.04075086)
(-0.1192387 0.08963153 -0.04478967)
(-0.1006125 0.07394721 -0.03426964)
(-0.120327 0.1305356 -0.1321036)
(-0.1206959 0.1305797 -0.1321002)
(-0.09020553 0.07046661 -0.03897991)
(-0.122108 0.1154907 -0.06219506)
(-0.1227284 0.1293896 -0.08891618)
(-0.1210383 0.1312697 -0.1317381)
(-0.1243628 0.1339023 -0.1023465)
(-0.119304 0.1336308 -0.126669)
(-0.1190802 0.1376174 -0.122546)
(-0.120337 0.1381522 -0.1226518)
(-0.1188163 0.1364225 -0.1230145)
(-0.1193653 0.1365879 -0.1260881)
(-0.1173025 0.08592799 -0.04586472)
(-0.1410656 0.09176183 -0.06818543)
(-0.1362619 0.09245419 -0.06420332)
(-0.1311889 0.09196189 -0.05659368)
(-0.1303353 0.08931942 -0.05686595)
(-0.118271 0.08587749 -0.04281237)
(-0.1361271 0.09301597 -0.06172948)
(-0.1317801 0.09139449 -0.0585997)
(-0.1315359 0.09008898 -0.05852157)
(-0.1315854 0.09071074 -0.0586473)
(-0.132966 0.0894291 -0.05784707)
(-0.1316079 0.08959895 -0.05819519)
(-0.1274157 0.08969269 -0.05394637)
(-0.1186137 0.08486634 -0.04537658)
(-0.1182776 0.08548307 -0.04641228)
(-0.118474 0.08507311 -0.04599146)
(-0.1177244 0.08623712 -0.04647338)
(-0.1176863 0.08583319 -0.04622668)
(-0.1179052 0.08533175 -0.04595376)
(-0.1180703 0.08496131 -0.04546855)
(-0.1174961 0.0855559 -0.04576218)
(-0.1175834 0.08524664 -0.04545735)
(-0.117342 0.08522659 -0.04502821)
(-0.117875 0.08485577 -0.04463743)
(-0.1181624 0.08712817 -0.04198708)
(-0.1169418 0.0896244 -0.04128742)
(-0.1165056 0.08993493 -0.04176496)
(-0.1177987 0.08578956 -0.04219687)
(-0.1177612 0.08624788 -0.04178746)
(-0.1179173 0.08683021 -0.04169665)
(-0.1177808 0.08790683 -0.04133755)
(-0.1174432 0.08867066 -0.04105373)
(-0.1172397 0.08909613 -0.04106117)
(-0.1174984 0.0865841 -0.04134863)
(-0.1176554 0.08705132 -0.04133738)
(-0.1163664 0.08950322 -0.04137211)
(-0.06699769 0.10544 -0.04113708)
(-0.06693636 0.1050616 -0.04084843)
(-0.06360734 0.1048123 -0.04676633)
(-0.07846668 0.06025806 -0.1014596)
(-0.05446136 0.1133323 -0.04765366)
(-0.0726171 0.103954 -0.04229704)
(-0.06318767 0.1037572 -0.04196246)
(-0.06264619 0.1042754 -0.04201024)
(-0.06309818 0.1044516 -0.04154621)
(-0.06570591 0.07712532 -0.102777)
(-0.06015189 0.07803705 -0.1015874)
(-0.05344198 0.0840656 -0.1002156)
(-0.05179677 0.09147272 -0.09939395)
(-0.05159554 0.0923023 -0.09996391)
(-0.04507603 0.09872656 -0.09531122)
(-0.04276235 0.1000908 -0.09090286)
(-0.04316216 0.1003905 -0.0912952)
(-0.04339265 0.1008919 -0.09114283)
(-0.04348052 0.1111319 -0.07342034)
(-0.04633554 0.1102671 -0.07488719)
(-0.04720509 0.1115795 -0.07160908)
(-0.04385753 0.1119657 -0.06629807)
(-0.04473476 0.1129881 -0.06411716)
(-0.04775952 0.1130404 -0.05503469)
(-0.04763947 0.1113207 -0.05597857)
(-0.04838216 0.1124092 -0.05336899)
(-0.04991006 0.1120193 -0.05086178)
(-0.05033237 0.1119346 -0.05039645)
(-0.05054542 0.1113531 -0.0502811)
(-0.0522595 0.1132001 -0.04900441)
(-0.06339279 0.1033793 -0.04238596)
(-0.06298611 0.1033694 -0.04262016)
(-0.06052053 0.1045818 -0.04440954)
(-0.06319296 0.1048238 -0.04699515)
(-0.0625964 0.1038041 -0.04239598)
(-0.06739729 0.1052735 -0.04109602)
(-0.06750365 0.1057283 -0.04179456)
(-0.07569958 0.1008929 -0.04744234)
(-0.07505573 0.1006502 -0.04872452)
(-0.04795096 0.1145617 -0.05888454)
(-0.06466499 0.07482436 -0.1044476)
(-0.04775252 0.09333645 -0.09980399)
(-0.07479483 0.09886902 -0.05198786)
(-0.04294169 0.1060995 -0.07694711)
(-0.07426791 0.0988778 -0.05185157)
(-0.0751957 0.09922016 -0.05155106)
(-0.04272915 0.1085472 -0.07311106)
(-0.07578941 0.09901588 -0.0515726)
(-0.07625065 0.09919928 -0.05107732)
(-0.07678579 0.09918942 -0.05070108)
(-0.07715257 0.09918393 -0.05028082)
(-0.07462443 0.09920668 -0.05162886)
(-0.07564428 0.09936281 -0.05119156)
(-0.07575481 0.09963684 -0.05074293)
(-0.07636499 0.09954461 -0.05049479)
(-0.07677971 0.09945752 -0.05027293)
(-0.07699845 0.0995051 -0.04989699)
(-0.07738229 0.09918757 -0.04980937)
(-0.06366123 0.1043966 -0.04667409)
(-0.06519479 0.1066587 -0.04179969)
(-0.07321874 0.09849257 -0.05060501)
(-0.0752721 0.09960531 -0.05101591)
(-0.07595336 0.0999501 -0.05008892)
(-0.07656091 0.09976465 -0.04993849)
(-0.07428637 0.09975043 -0.05090939)
(-0.07485478 0.09985491 -0.05075572)
(-0.07535466 0.09994024 -0.0504407)
(-0.07674933 0.09987585 -0.04945177)
(-0.07630453 0.1000355 -0.04962626)
(-0.04507767 0.108225 -0.07194787)
(-0.07394367 0.09994292 -0.05045043)
(-0.07443556 0.1000276 -0.05048194)
(-0.07487544 0.1001315 -0.05023573)
(-0.07188986 0.07342467 -0.1058194)
(-0.04323723 0.1035098 -0.0804156)
(-0.07256316 0.09939783 -0.04375021)
(-0.07489984 0.1003461 -0.0497178)
(-0.07536601 0.1002128 -0.04987495)
(-0.07588606 0.1002515 -0.04946893)
(-0.07629679 0.1002352 -0.04911855)
(-0.0622632 0.1032486 -0.04570739)
(-0.06238911 0.1034382 -0.04628783)
(-0.05140551 0.1108742 -0.05412988)
(-0.07983059 0.05543013 -0.09866603)
(-0.08036095 0.05785074 -0.09938833)
(-0.07755896 0.06179375 -0.1014974)
(-0.07703523 0.06279141 -0.1009332)
(-0.04793584 0.1105354 -0.05857443)
(-0.07844128 0.06489258 -0.09920318)
(-0.07819003 0.06824273 -0.1007131)
(-0.0779159 0.0689299 -0.1012287)
(-0.07768837 0.06946249 -0.1013779)
(-0.0777739 0.06936448 -0.1008458)
(-0.07771929 0.06915686 -0.1002405)
(-0.07681517 0.07004042 -0.1028031)
(-0.07693081 0.07027765 -0.1023565)
(-0.07742324 0.0698279 -0.1018294)
(-0.07751991 0.06966828 -0.1004328)
(-0.07696369 0.07048123 -0.1017683)
(-0.07726324 0.07024891 -0.1013082)
(-0.07754636 0.06983609 -0.1010948)
(-0.07690831 0.06991161 -0.100221)
(-0.07651887 0.07069889 -0.1021943)
(-0.07642251 0.07087177 -0.1015918)
(-0.0768382 0.07064764 -0.1011264)
(-0.07721028 0.07024108 -0.1007088)
(-0.07652774 0.07044142 -0.1005225)
(-0.07307311 0.07156835 -0.10523)
(-0.07269802 0.07163249 -0.105506)
(-0.07340635 0.07174233 -0.1049656)
(-0.07213949 0.07171617 -0.1057662)
(-0.07257119 0.07206696 -0.1056682)
(-0.07306784 0.07212298 -0.1053467)
(-0.07346497 0.07233533 -0.1049443)
(-0.07365151 0.07083188 -0.1018784)
(-0.07361029 0.07133663 -0.1021792)
(-0.07150577 0.0716661 -0.1058512)
(-0.07160537 0.07211766 -0.1059621)
(-0.07217858 0.07234743 -0.1058583)
(-0.07267704 0.07255112 -0.1056317)
(-0.07345923 0.07275175 -0.1047661)
(-0.07378387 0.07242057 -0.1040733)
(-0.07167599 0.0726701 -0.1059908)
(-0.0705163 0.07141134 -0.10531)
(-0.07081448 0.07308786 -0.1060566)
(-0.07221746 0.07302954 -0.1057984)
(-0.04479455 0.10415 -0.08433516)
(-0.04193551 0.09971622 -0.08911417)
(-0.05691314 0.08048801 -0.1005521)
(-0.05792876 0.07996275 -0.1004633)
(-0.05730052 0.08058117 -0.1001555)
(-0.05632113 0.08084656 -0.1006148)
(-0.05540682 0.08151963 -0.1006959)
(-0.07584292 0.100436 -0.0489848)
(-0.0550347 0.0822115 -0.1002921)
(-0.04934691 0.09413019 -0.1013749)
(-0.04756553 0.09508491 -0.1002837)
(-0.04789348 0.09538175 -0.100477)
(-0.04831126 0.09528644 -0.1007405)
(-0.04881597 0.09523217 -0.100895)
(-0.04931936 0.0951456 -0.1009451)
(-0.04737316 0.09431134 -0.09981685)
(-0.04729522 0.09483088 -0.09987137)
(-0.04732051 0.09537853 -0.09988734)
(-0.0476945 0.09566196 -0.1001725)
(-0.04869565 0.09570927 -0.1005845)
(-0.0473308 0.09399807 -0.09943113)
(-0.04818064 0.09575903 -0.1004053)
(-0.04914154 0.09591627 -0.1004021)
(-0.04962858 0.0959361 -0.09813223)
(-0.04327438 0.1001224 -0.09172992)
(-0.04259415 0.0979716 -0.09063508)
(-0.04302394 0.09745967 -0.0906676)
(-0.04238252 0.09846498 -0.09058449)
(-0.04485815 0.1061494 -0.08109181)
(-0.0425915 0.1088741 -0.07789599)
(-0.04256319 0.109077 -0.07701401)
(-0.04457783 0.1125604 -0.07252598)
(-0.0462708 0.1129664 -0.07247967)
(-0.04560686 0.1134036 -0.07133254)
(-0.04631766 0.1131943 -0.07192446)
(-0.04680907 0.112793 -0.07220495)
(-0.04563046 0.1135152 -0.07081752)
(-0.04621592 0.1134349 -0.07119095)
(-0.04685359 0.1130783 -0.07148363)
(-0.04719609 0.1124603 -0.07172039)
(-0.04621633 0.1135437 -0.07045919)
(-0.04382602 0.1114971 -0.06534711)
(-0.04704997 0.1146936 -0.06176474)
(-0.04797444 0.1146116 -0.06203823)
(-0.04827892 0.113849 -0.0633786)
(-0.04832103 0.1143468 -0.06226316)
(-0.04861703 0.1135129 -0.06304559)
(-0.04844067 0.1133928 -0.06353049)
(-0.04862484 0.1140671 -0.06215557)
(-0.0486214 0.1129897 -0.06332608)
(-0.04881604 0.1136081 -0.06238013)
(-0.04939692 0.1134904 -0.05220517)
(-0.04940327 0.1131951 -0.05191738)
(-0.04976552 0.1136533 -0.05184129)
(-0.04910517 0.1122229 -0.05194268)
(-0.04923995 0.1127771 -0.05190435)
(-0.04891869 0.1114201 -0.05242287)
(-0.04976768 0.1125363 -0.05110008)
(-0.05003456 0.1129641 -0.05096713)
(-0.04909066 0.111672 -0.05200224)
(-0.04932574 0.1118875 -0.05160667)
(-0.04959399 0.1120763 -0.05124187)
(-0.04935754 0.111425 -0.05166681)
(-0.05052548 0.112779 -0.05036358)
(-0.04964823 0.1114696 -0.05125886)
(-0.05009215 0.1101963 -0.05358943)
(-0.04934758 0.1107067 -0.05216314)
(-0.04955169 0.1109015 -0.05165377)
(-0.05013938 0.1113798 -0.05070891)
(-0.05000848 0.1108875 -0.05107336)
(-0.04969249 0.1103591 -0.05194438)
(-0.0507372 0.110209 -0.05356879)
(-0.04998372 0.110419 -0.05144659)
(-0.05218966 0.1109174 -0.05356541)
(-0.05178018 0.1105775 -0.05351698)
(-0.05135501 0.110245 -0.05332424)
(-0.05099624 0.1100144 -0.05309795)
(-0.05221996 0.1106183 -0.05315134)
(-0.05138178 0.1100461 -0.05288804)
(-0.05099079 0.1098529 -0.0526472)
(-0.05297165 0.1120883 -0.04793019)
(-0.05409569 0.1137892 -0.04835133)