/*--------------------------------*- C++ -*----------------------------------*\
| =========                 |                                                 |
| \\      /  F ield         | OpenFOAM: The Open Source CFD Toolbox           |
|  \\    /   O peration     | Version:  2306                                  |
|   \\  /    A nd           | Website:  www.openfoam.com                      |
|    \\/     M anipulation  |                                                 |
\*---------------------------------------------------------------------------*/
FoamFile
{
    version     2.0;
    format      ascii;
    arch        "LSB;label=32;scalar=64";
    class       featureEdgeMesh;
    location    "constant/triSurface";
    object      inlet.eMesh;
}
// * * * * * * * * * * * * * * * * * * * * * * * * * * * * * * * * * * * * * //


// points:

356
(
(-0.08548738 0.08190203 -0.05182627)
(-0.08586766 0.08077468 -0.05155073)
(-0.08695133 0.08177683 -0.05134873)
(-0.08764647 0.07404549 -0.05006051)
(-0.08910708 0.07498487 -0.04973125)
(-0.08751135 0.07584675 -0.05035219)
(-0.08696388 0.07985025 -0.05107824)
(-0.08546773 0.07971671 -0.05153011)
(-0.08588732 0.07868003 -0.05125478)
(-0.07241482 0.09402224 -0.05761305)
(-0.07268737 0.09231492 -0.05729112)
(-0.07420799 0.09349775 -0.05697671)
(-0.08287356 0.07275817 -0.05138298)
(-0.08451097 0.07297745 -0.05089851)
(-0.08378103 0.07408382 -0.05128108)
(-0.07374942 0.09487841 -0.05731189)
(-0.07124794 0.09292689 -0.05782837)
(-0.07521321 0.09544025 -0.05692946)
(-0.07604417 0.09392715 -0.05645883)
(-0.07674201 0.09571138 -0.05648633)
(-0.07758632 0.09434566 -0.0560319)
(-0.07828404 0.09574117 -0.05600565)
(-0.07883555 0.09415647 -0.05561298)
(-0.07981211 0.09558443 -0.05550351)
(-0.07389369 0.0917246 -0.0568302)
(-0.07023746 0.09167439 -0.05797274)
(-0.07162675 0.09141424 -0.05749997)
(-0.07064822 0.09042022 -0.05767009)
(-0.06934633 0.09032919 -0.0580668)
(-0.07290214 0.09081304 -0.05701581)
(-0.07435712 0.09024371 -0.05647961)
(-0.07571033 0.09202644 -0.05630083)
(-0.07731871 0.09290344 -0.05591649)
(-0.07025675 0.0888358 -0.05757396)
(-0.06853896 0.08892994 -0.05812705)
(-0.07302891 0.08950605 -0.05679513)
(-0.07181877 0.0898106 -0.05721772)
(-0.07213005 0.08809523 -0.05688255)
(-0.07727449 0.0912593 -0.05570292)
(-0.08045737 0.09377246 -0.05504995)
(-0.0787738 0.09237924 -0.0553865)
(-0.07811788 0.09344027 -0.05573951)
(-0.06779092 0.0874972 -0.05816399)
(-0.06911562 0.08775488 -0.05778317)
(-0.07029713 0.08705101 -0.05731434)
(-0.08278941 0.09487461 -0.05446927)
(-0.08131526 0.09528591 -0.05498962)
(-0.08223527 0.09390843 -0.05450979)
(-0.07612789 0.09013057 -0.05590726)
(-0.08423262 0.09436861 -0.05394552)
(-0.07391346 0.08843198 -0.05636845)
(-0.07742269 0.08987478 -0.0554648)
(-0.08031471 0.09202372 -0.05485287)
(-0.08164111 0.09235956 -0.05448233)
(-0.0833895 0.09244379 -0.05394431)
(-0.07522998 0.08898475 -0.05603103)
(-0.06883666 0.0860909 -0.05764067)
(-0.09450968 0.07473438 -0.04799809)
(-0.09334318 0.07516804 -0.04842482)
(-0.09353969 0.07345048 -0.04812538)
(-0.09521586 0.07618549 -0.04797677)
(-0.09358817 0.07707549 -0.04861169)
(-0.0956374 0.07774153 -0.04805959)
(-0.09236552 0.07236379 -0.04834421)
(-0.09202498 0.07389677 -0.04866337)
(-0.09042334 0.07252588 -0.04897723)
(-0.09105399 0.07146548 -0.04863227)
(-0.09419996 0.07865374 -0.04863771)
(-0.09276032 0.07821552 -0.04902967)
(-0.09579012 0.07933978 -0.04823268)
(-0.09447517 0.08029342 -0.04877804)
(-0.09570938 0.08093429 -0.04847863)
(-0.09542872 0.08249612 -0.04878302)
(-0.09451449 0.08204925 -0.04900857)
(-0.09189974 0.07732045 -0.04917637)
(-0.09223498 0.07615098 -0.04890922)
(-0.09185754 0.07512759 -0.0488863)
(-0.08965908 0.07072152 -0.04896788)
(-0.09054001 0.07426631 -0.04918134)
(-0.09304325 0.07951124 -0.04911996)
(-0.09285394 0.08135729 -0.04943492)
(-0.09498043 0.08400875 -0.04913315)
(-0.09351369 0.08293015 -0.04944507)
(-0.0912827 0.0787105 -0.04956272)
(-0.08144948 0.08893369 -0.05406861)
(-0.08116663 0.09069476 -0.05440118)
(-0.08019994 0.08946716 -0.05453527)
(-0.09085388 0.07602514 -0.04932598)
(-0.0890635 0.07328122 -0.04950925)
(-0.08874223 0.07175364 -0.04939891)
(-0.09052499 0.0774294 -0.04962366)
(-0.09329372 0.08412613 -0.04967971)
(-0.08933942 0.0766492 -0.04988847)
(-0.09166385 0.08032225 -0.04966584)
(-0.09438179 0.08545869 -0.04952202)
(-0.09220688 0.08288211 -0.04984928)
(-0.09110118 0.08162391 -0.05002284)
(-0.08756857 0.07241588 -0.04985955)
(-0.08755235 0.07108853 -0.04968099)
(-0.08970019 0.07836745 -0.05001278)
(-0.08993729 0.08017243 -0.05018795)
(-0.08821618 0.0700916 -0.04933434)
(-0.0867464 0.0695397 -0.0497201)
(-0.09071612 0.08301281 -0.05033606)
(-0.09175925 0.08423377 -0.05017702)
(-0.09268098 0.08542054 -0.05005143)
(-0.09365094 0.08683749 -0.0499425)
(-0.09215723 0.08668032 -0.05039039)
(-0.09279608 0.0881338 -0.05039062)
(-0.08643941 0.07144626 -0.0500804)
(-0.08834618 0.08082835 -0.05077895)
(-0.08829717 0.07928279 -0.05058052)
(-0.08961 0.08194916 -0.05053666)
(-0.0904439 0.08419839 -0.05058568)
(-0.09107802 0.08562696 -0.05058396)
(-0.09182626 0.08933763 -0.0508621)
(-0.09048916 0.0888554 -0.05121574)
(-0.09106099 0.08743827 -0.05083991)
(-0.08817025 0.07768276 -0.05039904)
(-0.08914702 0.08334928 -0.05087592)
(-0.08836039 0.08222311 -0.05096745)
(-0.08950274 0.08491949 -0.05098132)
(-0.08965889 0.08647717 -0.05114774)
(-0.09075027 0.09043925 -0.05135276)
(-0.08949962 0.08787484 -0.0513912)
(-0.08827891 0.0843238 -0.05128372)
(-0.08597747 0.0730946 -0.05045369)
(-0.08720607 0.07853913 -0.0508207)
(-0.08653107 0.077251 -0.0508547)
(-0.08633374 0.07461555 -0.05055212)
(-0.08507727 0.07183483 -0.0505624)
(-0.08759749 0.08323358 -0.05134714)
(-0.08825088 0.08549821 -0.05145501)
(-0.08921562 0.08927871 -0.05167474)
(-0.08792565 0.0882984 -0.05194468)
(-0.08828583 0.08701251 -0.05165352)
(-0.08957919 0.09143189 -0.05185833)
(-0.08870039 0.09079107 -0.05204596)
(-0.08574507 0.07581496 -0.05090312)
(-0.08498934 0.07437062 -0.05094088)
(-0.08700229 0.08472642 -0.05174077)
(-0.08614228 0.08323938 -0.05180541)
(-0.08719689 0.08605186 -0.05186297)
(-0.08761144 0.08982205 -0.05225424)
(-0.088327 0.09231426 -0.05237409)
(-0.08688663 0.08709271 -0.05210451)
(-0.08640501 0.08860848 -0.05246563)
(-0.08493289 0.07718532 -0.05134803)
(-0.08415963 0.07565373 -0.05137926)
(-0.08530717 0.07048169 -0.05030293)
(-0.08376856 0.06856796 -0.05052187)
(-0.08526158 0.06903855 -0.0501176)
(-0.08425165 0.06968646 -0.05052473)
(-0.08404231 0.070699 -0.05073065)
(-0.08444295 0.08075193 -0.05199552)
(-0.08602974 0.08602209 -0.05222578)
(-0.08722547 0.09131879 -0.05258266)
(-0.08384402 0.07188136 -0.05095657)
(-0.08312863 0.06957975 -0.05086288)
(-0.08433886 0.07873811 -0.05174963)
(-0.08386916 0.08354278 -0.05256204)
(-0.08484042 0.08310089 -0.05219554)
(-0.08523214 0.0845914 -0.0522786)
(-0.08409596 0.08220547 -0.05230572)
(-0.08455246 0.08620229 -0.05271517)
(-0.08543392 0.08744384 -0.0526098)
(-0.0861279 0.09010986 -0.05276046)
(-0.08600491 0.09156942 -0.05300107)
(-0.08426899 0.09083223 -0.05344484)
(-0.08487648 0.08886817 -0.05298214)
(-0.08700985 0.09309258 -0.05289584)
(-0.08564156 0.09377498 -0.05342045)
(-0.08516635 0.09268771 -0.05341943)
(-0.06709278 0.08603912 -0.05818177)
(-0.07175366 0.08610892 -0.05672608)
(-0.07030697 0.0857297 -0.05712844)
(-0.070953 0.08464872 -0.05677578)
(-0.06917853 0.08439541 -0.05729861)
(-0.07317246 0.08177809 -0.05568084)
(-0.07270914 0.08000433 -0.05558111)
(-0.07434861 0.08067763 -0.05515882)
(-0.07444977 0.08235458 -0.05535902)
(-0.07432462 0.08598973 -0.0559013)
(-0.07597518 0.08565587 -0.05533619)
(-0.0751164 0.08731474 -0.0558357)
(-0.07434272 0.08485638 -0.0557388)
(-0.07342775 0.08690813 -0.05631033)
(-0.07172138 0.08097042 -0.05602531)
(-0.07181044 0.08245542 -0.05620276)
(-0.07514148 0.08383836 -0.05534683)
(-0.07316297 0.08537833 -0.05618192)
(-0.07213204 0.08466988 -0.05640803)
(-0.07325745 0.08364766 -0.05591278)
(-0.07175384 0.08378892 -0.05640505)
(-0.0781126 0.07817908 -0.05362977)
(-0.07701146 0.07687058 -0.05379492)
(-0.07850832 0.07611177 -0.05321934)
(-0.08286473 0.0710123 -0.05114419)
(-0.08135889 0.07348605 -0.05195987)
(-0.08144141 0.07175162 -0.05169396)
(-0.08371011 0.07720321 -0.05173495)
(-0.08253951 0.07614611 -0.05195672)
(-0.08268265 0.07974409 -0.05240951)
(-0.08088344 0.07895155 -0.05286551)
(-0.07942086 0.07892212 -0.05332127)
(-0.07975259 0.07752442 -0.0530236)
(-0.08256288 0.07797042 -0.05220177)
(-0.08000237 0.07240071 -0.0522362)
(-0.07993138 0.07393523 -0.05247082)
(-0.08257017 0.0745058 -0.05172015)
(-0.0810215 0.07524322 -0.05230906)
(-0.08108437 0.07697563 -0.05252898)
(-0.07996201 0.0761665 -0.05276989)
(-0.07962467 0.07513336 -0.052733)
(-0.08390028 0.08505249 -0.05276113)
(-0.08261875 0.09127352 -0.05402472)
(-0.0837028 0.08927216 -0.05340701)
(-0.08265316 0.08993372 -0.05382853)
(-0.07951233 0.09068801 -0.05492035)
(-0.07831741 0.09054552 -0.05527631)
(-0.07862996 0.08902708 -0.05496795)
(-0.0787725 0.08728114 -0.05468159)
(-0.08017946 0.08817263 -0.0543626)
(-0.08367519 0.0877716 -0.05320809)
(-0.08296148 0.08600585 -0.05318817)
(-0.08257663 0.08866763 -0.05367743)
(-0.08004583 0.08646619 -0.05416852)
(-0.08182891 0.08732618 -0.05372692)
(-0.08133887 0.08549882 -0.05362817)
(-0.0825775 0.08439688 -0.0530863)
(-0.07605052 0.07738883 -0.05416874)
(-0.07678378 0.07803782 -0.054028)
(-0.07569011 0.07840572 -0.05442274)
(-0.07845886 0.07980245 -0.05374551)
(-0.07704065 0.08083224 -0.05433386)
(-0.07688959 0.07925795 -0.05416354)
(-0.07576761 0.08143285 -0.05481718)
(-0.0758129 0.08277474 -0.0549886)
(-0.07573661 0.07985337 -0.0546084)
(-0.07693574 0.08239236 -0.05458269)
(-0.08145803 0.0808164 -0.05294288)
(-0.08050548 0.08213311 -0.05342451)
(-0.07981317 0.08034593 -0.05339492)
(-0.0830401 0.08119515 -0.05249789)
(-0.08106817 0.08391084 -0.05349357)
(-0.08227621 0.08260003 -0.05293242)
(-0.07881841 0.08571264 -0.05445015)
(-0.07995242 0.08498355 -0.05399276)
(-0.07679529 0.08859335 -0.05548476)
(-0.07763913 0.0877256 -0.05509941)
(-0.07655617 0.08714743 -0.0553599)
(-0.07655036 0.08376867 -0.05489426)
(-0.07766502 0.08492738 -0.05470413)
(-0.07761507 0.08633275 -0.05491427)
(-0.07871145 0.08450139 -0.0543162)
(-0.07846839 0.0817655 -0.0540141)
(-0.07946922 0.0835468 -0.0539459)
(-0.0780064 0.08344777 -0.0543921)
(-0.08176192 0.06997482 -0.0513473)
(-0.07982387 0.07055959 -0.05203758)
(-0.0782764 0.07427146 -0.05303765)
(-0.07895876 0.07305059 -0.05265421)
(-0.0769844 0.07538709 -0.0535982)
(-0.07782071 0.07294668 -0.05299763)
(-0.07476784 0.07723749 -0.05455107)
(-0.07419892 0.07884409 -0.05495221)
(-0.07043526 0.08062126 -0.05638137)
(-0.07081141 0.08181801 -0.05642866)
(-0.0705827 0.08314548 -0.05668422)
(-0.06644863 0.08455631 -0.05817916)
(-0.06759543 0.08328141 -0.05764223)
(-0.06785521 0.08478969 -0.05776921)
(-0.07562657 0.07615769 -0.05413171)
(-0.075428 0.07469068 -0.05399116)
(-0.07842564 0.0715381 -0.05261256)
(-0.07078438 0.07812835 -0.0559267)
(-0.07175164 0.0767347 -0.05542978)
(-0.07241462 0.07830818 -0.05543904)
(-0.07332537 0.07717417 -0.05499582)
(-0.07407159 0.07586943 -0.0545807)
(-0.07135011 0.07953236 -0.05594309)
(-0.06967245 0.08186035 -0.05679261)
(-0.06899342 0.08278798 -0.05713444)
(-0.0658731 0.08304592 -0.05815114)
(-0.06671009 0.08193108 -0.05773375)
(-0.08226994 0.06812003 -0.05093107)
(-0.07681836 0.07360164 -0.05340338)
(-0.06988102 0.07914244 -0.056351)
(-0.0688403 0.08045912 -0.05686038)
(-0.06809802 0.08181885 -0.05728187)
(-0.06538979 0.08150467 -0.05808982)
(-0.06701878 0.08030257 -0.05741136)
(-0.07392495 0.07388552 -0.05435231)
(-0.07531981 0.07268791 -0.0537481)
(-0.07057972 0.07541615 -0.05561578)
(-0.07027435 0.07680775 -0.0559043)
(-0.06916308 0.07765165 -0.05637044)
(-0.06812132 0.07886453 -0.05686577)
(-0.067746 0.07695764 -0.05671994)
(-0.06502803 0.07993291 -0.05798607)
(-0.06629689 0.07832612 -0.05736485)
(-0.07695468 0.07198434 -0.05313676)
(-0.07287998 0.07614837 -0.05499392)
(-0.07224759 0.07506152 -0.05504236)
(-0.06903131 0.07604227 -0.05618922)
(-0.06481925 0.07833803 -0.05783107)
(-0.08059469 0.06881994 -0.05155455)
(-0.07218245 0.07300558 -0.05477845)
(-0.07066614 0.07392579 -0.05538247)
(-0.0692478 0.07450203 -0.05590811)
(-0.06710071 0.07489578 -0.05663763)
(-0.06617599 0.07642886 -0.05714044)
(-0.06479345 0.07673667 -0.05761771)
(-0.07420383 0.07110864 -0.05388047)
(-0.07370003 0.07245889 -0.05422568)
(-0.07575975 0.07093933 -0.05336788)
(-0.0772161 0.07047344 -0.05284556)
(-0.07839656 0.06997114 -0.05240493)
(-0.07292369 0.07133581 -0.05431437)
(-0.07059648 0.07237525 -0.05518984)
(-0.0692324 0.07296496 -0.05570029)
(-0.06796925 0.07365449 -0.05619282)
(-0.06497183 0.07515474 -0.05734276)
(-0.07476705 0.06956866 -0.05349032)
(-0.07903799 0.06894158 -0.05206081)
(-0.07173797 0.07033986 -0.05454936)
(-0.07157379 0.07164167 -0.05478109)
(-0.06933977 0.07164358 -0.05548371)
(-0.06687394 0.07340015 -0.05650198)
(-0.06768493 0.07219156 -0.05607978)
(-0.07059444 0.07090807 -0.05498748)
(-0.07314132 0.06966748 -0.05401511)
(-0.06596475 0.0721762 -0.05661849)
(-0.06536272 0.07362357 -0.05700801)
(-0.07719967 0.0686217 -0.05259449)
(-0.07607462 0.06951858 -0.05307231)
(-0.07168344 0.06906536 -0.05439015)
(-0.07083414 0.06982289 -0.05476198)
(-0.06939221 0.07000519 -0.05524053)
(-0.07047838 0.0687919 -0.05473117)
(-0.06825833 0.0709342 -0.05572555)
(-0.06676961 0.07084582 -0.05618137)
(-0.07551738 0.068318 -0.05308137)
(-0.07401791 0.06834839 -0.05355699)
(-0.07270225 0.06827734 -0.05396081)
(-0.0689183 0.06865443 -0.05520261)
(-0.06776106 0.06966262 -0.05570596)
(-0.07829277 0.06799745 -0.05216436)
(-0.07925169 0.06731937 -0.05176923)
(-0.07772622 0.06701057 -0.05220612)
(-0.07618839 0.06681078 -0.0526619)
(-0.07311599 0.06690339 -0.05364065)
(-0.07162847 0.0672622 -0.05415801)
(-0.07021773 0.06784826 -0.05468253)
(-0.07464559 0.06676199 -0.0531402)
(-0.08076522 0.06769849 -0.0513458)
)


// edges:

1005
(
(2 0)
(4 5)
(3 4)
(8 6)
(6 7)
(11 9)
(14 12)
(11 17)
(21 22)
(24 11)
(26 16)
(27 26)
(28 27)
(29 24)
(30 24)
(11 31)
(24 31)
(32 20)
(31 32)
(34 33)
(35 29)
(33 27)
(33 37)
(22 39)
(39 23)
(22 40)
(43 34)
(44 33)
(47 45)
(48 31)
(48 51)
(53 39)
(53 54)
(54 49)
(55 30)
(50 55)
(44 37)
(37 50)
(56 43)
(57 58)
(61 58)
(62 61)
(64 63)
(65 66)
(61 67)
(68 61)
(67 68)
(62 67)
(58 64)
(70 69)
(72 73)
(70 67)
(75 76)
(58 75)
(76 64)
(64 65)
(76 78)
(74 75)
(75 61)
(70 73)
(80 70)
(73 80)
(83 68)
(79 83)
(85 86)
(86 84)
(84 85)
(75 87)
(88 65)
(89 77)
(83 74)
(82 80)
(91 82)
(78 4)
(87 92)
(92 4)
(80 93)
(94 91)
(95 80)
(91 95)
(96 80)
(98 89)
(97 98)
(99 83)
(83 100)
(92 5)
(98 102)
(99 92)
(88 97)
(103 96)
(95 103)
(91 104)
(94 105)
(107 105)
(108 107)
(97 109)
(96 100)
(100 110)
(103 112)
(113 103)
(114 105)
(107 114)
(117 115)
(115 116)
(111 99)
(112 120)
(120 110)
(113 119)
(113 121)
(114 113)
(114 117)
(122 114)
(107 117)
(124 117)
(121 125)
(125 119)
(126 97)
(110 6)
(6 127)
(127 111)
(118 127)
(127 128)
(129 3)
(5 129)
(126 109)
(126 130)
(129 126)
(131 120)
(132 125)
(2 6)
(125 131)
(124 133)
(133 134)
(122 132)
(124 135)
(116 133)
(123 133)
(136 137)
(128 138)
(5 128)
(139 129)
(129 138)
(131 140)
(141 131)
(142 132)
(132 135)
(142 140)
(134 135)
(133 137)
(137 143)
(144 137)
(134 145)
(143 134)
(146 134)
(145 142)
(2 131)
(8 128)
(147 128)
(148 138)
(130 149)
(149 109)
(152 150)
(153 152)
(149 153)
(154 7)
(144 156)
(156 143)
(157 153)
(130 157)
(159 8)
(141 161)
(154 0)
(163 154)
(162 140)
(164 155)
(165 164)
(167 168)
(145 165)
(146 169)
(169 165)
(166 169)
(167 156)
(171 172)
(173 56)
(56 44)
(56 175)
(175 44)
(174 175)
(175 176)
(177 175)
(178 179)
(179 180)
(181 178)
(180 181)
(55 48)
(182 183)
(183 184)
(184 55)
(186 184)
(188 187)
(174 186)
(186 37)
(190 186)
(191 190)
(174 191)
(192 188)
(192 185)
(190 192)
(191 192)
(193 188)
(191 193)
(194 195)
(197 153)
(14 139)
(148 14)
(12 157)
(12 198)
(199 12)
(200 148)
(201 148)
(154 159)
(202 159)
(204 205)
(203 204)
(159 200)
(202 203)
(207 198)
(208 207)
(12 209)
(148 209)
(210 209)
(211 201)
(206 211)
(204 194)
(213 212)
(212 196)
(205 211)
(211 203)
(212 211)
(205 212)
(210 208)
(211 210)
(212 210)
(163 161)
(160 163)
(164 162)
(164 214)
(214 160)
(172 167)
(54 172)
(172 168)
(54 168)
(85 53)
(215 54)
(168 169)
(215 168)
(218 52)
(40 218)
(38 219)
(219 40)
(218 85)
(218 86)
(219 51)
(221 222)
(86 222)
(223 164)
(85 215)
(84 225)
(227 222)
(222 226)
(228 229)
(229 214)
(225 223)
(216 225)
(223 227)
(230 231)
(204 233)
(234 235)
(233 234)
(237 181)
(181 236)
(234 239)
(236 234)
(231 235)
(234 238)
(242 240)
(154 243)
(243 202)
(163 243)
(228 244)
(163 245)
(245 243)
(245 241)
(240 245)
(245 244)
(240 243)
(228 227)
(226 228)
(248 51)
(184 248)
(248 249)
(249 220)
(250 249)
(183 250)
(250 184)
(251 183)
(252 183)
(249 221)
(253 250)
(252 254)
(204 242)
(255 242)
(255 234)
(244 256)
(228 247)
(247 254)
(257 252)
(251 257)
(257 254)
(251 237)
(237 239)
(257 256)
(257 255)
(197 258)
(199 259)
(207 199)
(207 259)
(197 199)
(260 208)
(261 208)
(260 261)
(262 196)
(261 207)
(263 261)
(264 230)
(265 264)
(238 265)
(266 187)
(267 266)
(188 267)
(271 269)
(269 270)
(56 271)
(262 272)
(272 273)
(274 207)
(261 274)
(275 276)
(278 264)
(279 272)
(272 264)
(265 277)
(277 278)
(280 179)
(280 277)
(266 280)
(281 266)
(282 177)
(270 282)
(270 283)
(283 284)
(273 286)
(286 262)
(287 275)
(275 280)
(266 288)
(288 287)
(289 288)
(284 289)
(289 270)
(284 290)
(291 284)
(279 292)
(258 285)
(293 286)
(294 276)
(275 296)
(288 297)
(297 298)
(288 291)
(300 291)
(302 303)
(279 302)
(303 276)
(304 296)
(259 306)
(303 308)
(308 307)
(307 303)
(304 309)
(310 304)
(310 309)
(298 311)
(311 310)
(300 311)
(300 312)
(312 311)
(314 313)
(293 314)
(293 315)
(316 317)
(274 316)
(314 307)
(307 318)
(292 307)
(319 307)
(308 309)
(320 308)
(310 321)
(321 320)
(322 310)
(315 313)
(306 285)
(315 316)
(316 301)
(326 325)
(325 318)
(307 326)
(318 313)
(327 319)
(320 327)
(321 328)
(310 328)
(330 325)
(325 331)
(331 313)
(327 330)
(328 332)
(316 335)
(335 334)
(331 323)
(317 259)
(325 337)
(337 336)
(330 337)
(339 337)
(337 338)
(327 340)
(341 340)
(335 342)
(335 323)
(331 344)
(345 339)
(340 346)
(346 338)
(348 324)
(334 324)
(324 317)
(334 349)
(344 352)
(336 352)
(339 352)
(109 102)
(354 342)
(343 354)
(348 306)
(276 302)
(302 278)
(278 279)
(169 223)
(190 182)
(143 166)
(239 257)
(149 151)
(26 29)
(193 176)
(191 176)
(181 192)
(219 218)
(194 235)
(229 245)
(253 252)
(230 272)
(282 281)
(268 282)
(282 289)
(286 260)
(301 286)
(1 2)
(0 1)
(5 3)
(7 8)
(9 10)
(10 11)
(12 13)
(13 14)
(11 15)
(16 10)
(18 19)
(17 18)
(19 20)
(20 21)
(18 20)
(22 23)
(11 18)
(10 24)
(25 26)
(26 10)
(25 27)
(10 29)
(29 30)
(31 18)
(18 32)
(20 22)
(33 28)
(36 35)
(29 36)
(36 33)
(37 36)
(35 30)
(30 31)
(31 38)
(38 32)
(40 41)
(32 40)
(41 32)
(40 39)
(22 41)
(36 27)
(42 43)
(43 33)
(43 44)
(37 35)
(46 47)
(39 47)
(46 39)
(30 48)
(48 38)
(47 49)
(50 30)
(35 50)
(38 40)
(51 38)
(39 52)
(52 53)
(53 47)
(54 47)
(40 52)
(42 56)
(58 59)
(60 58)
(60 61)
(59 64)
(63 65)
(69 67)
(71 70)
(73 71)
(74 61)
(68 74)
(76 58)
(65 77)
(78 64)
(67 79)
(79 68)
(70 79)
(82 73)
(81 82)
(73 81)
(87 76)
(87 78)
(78 65)
(78 88)
(65 89)
(74 90)
(87 74)
(90 87)
(80 79)
(81 91)
(88 89)
(4 88)
(4 87)
(83 90)
(93 79)
(93 83)
(82 95)
(95 96)
(96 93)
(89 97)
(100 99)
(99 90)
(90 92)
(98 101)
(101 89)
(93 100)
(104 95)
(91 105)
(105 104)
(106 105)
(106 107)
(109 98)
(111 100)
(110 111)
(96 112)
(112 100)
(103 104)
(104 113)
(114 104)
(116 117)
(3 88)
(3 97)
(92 118)
(118 5)
(99 118)
(103 119)
(119 112)
(110 112)
(121 119)
(114 121)
(117 122)
(108 117)
(123 116)
(116 124)
(124 122)
(122 121)
(3 126)
(6 111)
(128 118)
(111 118)
(130 109)
(8 127)
(119 131)
(120 119)
(121 132)
(110 2)
(134 124)
(135 122)
(137 123)
(1 6)
(138 5)
(138 139)
(140 141)
(135 142)
(140 132)
(125 140)
(143 133)
(145 135)
(143 146)
(141 2)
(141 0)
(139 126)
(8 147)
(147 138)
(147 148)
(13 126)
(139 13)
(151 152)
(152 149)
(13 130)
(7 1)
(1 154)
(155 140)
(142 155)
(156 137)
(146 145)
(153 130)
(153 158)
(158 152)
(148 139)
(7 159)
(161 162)
(160 161)
(162 160)
(161 0)
(0 163)
(141 162)
(155 162)
(155 165)
(168 166)
(166 167)
(155 145)
(165 146)
(146 166)
(170 167)
(156 170)
(172 170)
(174 37)
(44 174)
(176 174)
(56 177)
(180 178)
(184 182)
(185 183)
(182 185)
(50 184)
(50 186)
(178 188)
(187 178)
(185 189)
(189 183)
(174 190)
(178 192)
(185 190)
(192 189)
(192 193)
(195 196)
(196 194)
(157 197)
(197 158)
(157 13)
(12 197)
(198 199)
(147 200)
(159 147)
(200 201)
(154 202)
(205 203)
(159 206)
(206 200)
(206 202)
(203 206)
(198 208)
(209 198)
(209 14)
(201 210)
(209 201)
(201 206)
(194 205)
(196 213)
(198 210)
(210 213)
(213 208)
(214 162)
(49 172)
(52 85)
(53 215)
(168 216)
(216 169)
(217 168)
(215 217)
(220 219)
(51 220)
(222 220)
(220 221)
(220 86)
(218 220)
(222 84)
(165 223)
(223 224)
(224 164)
(217 216)
(225 217)
(217 84)
(85 217)
(226 227)
(227 84)
(229 224)
(224 228)
(214 224)
(223 216)
(227 225)
(227 224)
(231 232)
(232 230)
(233 194)
(235 233)
(236 237)
(180 238)
(238 236)
(236 180)
(239 236)
(235 232)
(235 238)
(238 232)
(240 241)
(241 242)
(229 160)
(244 229)
(160 245)
(244 241)
(221 226)
(247 226)
(226 246)
(246 247)
(248 48)
(55 248)
(220 248)
(248 250)
(189 251)
(251 252)
(183 253)
(221 253)
(246 221)
(253 246)
(254 246)
(246 252)
(249 253)
(242 233)
(241 255)
(233 255)
(256 241)
(247 244)
(256 247)
(254 256)
(239 251)
(256 255)
(258 158)
(258 199)
(259 258)
(213 260)
(195 262)
(260 196)
(262 260)
(260 263)
(195 231)
(230 195)
(232 264)
(232 265)
(187 179)
(265 180)
(179 265)
(187 267)
(188 268)
(268 267)
(193 268)
(270 271)
(176 177)
(268 176)
(177 268)
(271 177)
(173 271)
(273 262)
(195 272)
(277 275)
(276 277)
(265 278)
(264 279)
(187 280)
(277 179)
(267 281)
(268 281)
(177 270)
(284 270)
(158 285)
(150 158)
(274 259)
(279 273)
(280 287)
(266 287)
(281 288)
(281 289)
(290 291)
(292 273)
(263 274)
(273 293)
(295 294)
(276 295)
(296 295)
(295 275)
(287 296)
(297 287)
(298 296)
(296 297)
(291 297)
(289 291)
(291 299)
(299 300)
(263 301)
(301 274)
(303 279)
(294 303)
(295 304)
(304 294)
(298 304)
(297 300)
(300 298)
(305 300)
(306 258)
(294 308)
(309 294)
(298 310)
(313 293)
(315 301)
(301 293)
(317 274)
(318 314)
(314 292)
(308 319)
(309 320)
(321 309)
(311 322)
(313 323)
(323 315)
(324 306)
(259 324)
(318 326)
(319 326)
(319 320)
(328 329)
(329 321)
(326 330)
(331 318)
(330 319)
(320 329)
(329 327)
(332 329)
(328 333)
(316 334)
(334 317)
(315 335)
(325 336)
(336 331)
(338 339)
(338 327)
(340 338)
(338 330)
(329 340)
(329 341)
(342 334)
(323 342)
(331 343)
(343 323)
(344 343)
(336 344)
(339 336)
(338 345)
(324 347)
(347 348)
(343 342)
(347 334)
(349 347)
(350 334)
(342 350)
(344 351)
(351 343)
(339 353)
(306 355)
(20 41)
(333 310)
(278 276)
(303 292)
(255 239)
(182 186)
(166 156)
(102 149)
(26 36)
(120 2)
(181 189)
(194 231)
(205 196)
(237 189)
(203 242)
(203 240)
(202 240)
(286 263)
(293 292)
(15 9)
(9 16)
(19 17)
(21 19)
(17 15)
(23 21)
(16 25)
(25 28)
(28 34)
(34 42)
(45 46)
(49 45)
(59 57)
(57 60)
(60 62)
(63 59)
(66 63)
(62 69)
(69 71)
(71 72)
(77 66)
(81 94)
(102 101)
(94 106)
(106 108)
(108 115)
(115 123)
(123 136)
(136 144)
(150 151)
(170 171)
(42 173)
(171 49)
(173 269)
(269 283)
(285 150)
(283 290)
(290 299)
(299 305)
(305 312)
(312 322)
(72 81)
(333 332)
(332 341)
(341 346)
(346 345)
(352 351)
(353 352)
(345 353)
(350 349)
(354 350)
(351 354)
(355 285)
(46 23)
(348 355)
(349 348)
(322 333)
(144 170)
(151 102)
(101 77)
)

// * * * * * * * * * * * * * * * * * * * * * * * * * * * * * * * * * * * * * //


// ************************************************************************* //
