/*--------------------------------*- C++ -*----------------------------------*\
| =========                 |                                                 |
| \\      /  F ield         | OpenFOAM: The Open Source CFD Toolbox           |
|  \\    /   O peration     | Version:  2306                                  |
|   \\  /    A nd           | Website:  www.openfoam.com                      |
|    \\/     M anipulation  |                                                 |
\*---------------------------------------------------------------------------*/
FoamFile
{
    version     2.0;
    format      ascii;
    arch        "LSB;label=32;scalar=64";
    class       featureEdgeMesh;
    location    "constant/triSurface";
    object      outlet.eMesh;
}
// * * * * * * * * * * * * * * * * * * * * * * * * * * * * * * * * * * * * * //


// points:

302
(
(-0.07202589 0.07449686 -0.01137649)
(-0.07336349 0.07385299 -0.01199716)
(-0.07224157 0.07322474 -0.01188686)
(-0.07315821 0.07245386 -0.01242796)
(-0.07443229 0.07316404 -0.01255437)
(-0.07469118 0.07193176 -0.01306349)
(-0.07358713 0.07098667 -0.01306974)
(-0.06668537 0.0774655 -0.008758669)
(-0.06789766 0.07816875 -0.008869277)
(-0.0677736 0.07651 -0.00941522)
(-0.06829061 0.0746413 -0.01022398)
(-0.06928525 0.07608372 -0.01001081)
(-0.07033568 0.074958 -0.01071599)
(-0.07097813 0.07337505 -0.01146141)
(-0.06910189 0.07317515 -0.01097817)
(-0.07168967 0.07222098 -0.01207658)
(-0.07230989 0.07134117 -0.0125685)
(-0.07241347 0.07013085 -0.0130241)
(-0.05665041 0.08578484 -0.00287705)
(-0.05797346 0.08732658 -0.002725859)
(-0.05828594 0.086032 -0.003272683)
(-0.06170755 0.08226801 -0.005603804)
(-0.06167614 0.08079886 -0.006110491)
(-0.05981401 0.08136746 -0.005361521)
(-0.06331283 0.07861283 -0.007360953)
(-0.06406859 0.07761446 -0.007934491)
(-0.06281337 0.07706526 -0.007757117)
(-0.06194204 0.07934505 -0.006699462)
(-0.06310218 0.08018698 -0.006746008)
(-0.06483241 0.07871446 -0.007773491)
(-0.06536372 0.07754233 -0.008341846)
(-0.06602242 0.07614543 -0.009026714)
(-0.06922939 0.07760514 -0.009460028)
(-0.06642 0.07464936 -0.00966938)
(-0.07082053 0.07686698 -0.0101886)
(-0.06916467 0.07151846 -0.0115785)
(-0.07039385 0.07230381 -0.01166526)
(-0.06637403 0.07893121 -0.0081521)
(-0.07095188 0.07100333 -0.01228658)
(-0.06914844 0.069767 -0.01218879)
(-0.07117656 0.06937464 -0.01292483)
(-0.05935455 0.08545472 -0.003790614)
(-0.0577678 0.08489767 -0.003518208)
(-0.05895565 0.0840003 -0.004183718)
(-0.06013886 0.08310992 -0.004845423)
(-0.05867712 0.08242379 -0.004655218)
(-0.06179589 0.07793085 -0.007153)
(-0.06428198 0.07626723 -0.008470557)
(-0.06499106 0.07502118 -0.009117311)
(-0.06722857 0.07311636 -0.01044625)
(-0.06748852 0.07064271 -0.01139165)
(-0.06796411 0.07206476 -0.01103252)
(-0.06036769 0.07963807 -0.006132162)
(-0.05815049 0.08123 -0.004919101)
(-0.05699523 0.08195944 -0.004322174)
(-0.06076723 0.07848664 -0.006654378)
(-0.06496212 0.07350975 -0.009639568)
(-0.06609561 0.0733861 -0.01001734)
(-0.06689054 0.07177006 -0.01081935)
(-0.06614172 0.07093205 -0.01089275)
(-0.06579718 0.07211591 -0.01037538)
(-0.06854097 0.06821741 -0.01255382)
(-0.06729155 0.06890643 -0.01194329)
(-0.06988286 0.06873152 -0.01276907)
(-0.05857671 0.07995275 -0.005493385)
(-0.0612879 0.07663929 -0.007456721)
(-0.06249165 0.07546079 -0.008225657)
(-0.06371015 0.07449421 -0.008924533)
(-0.06716321 0.06784856 -0.01227692)
(-0.06066192 0.07494937 -0.007865551)
(-0.06182448 0.07365735 -0.008662194)
(-0.06346816 0.07310012 -0.009342736)
(-0.06403433 0.07195591 -0.009911559)
(-0.06488977 0.07073113 -0.01059401)
(-0.065648 0.06935375 -0.01130138)
(-0.06576609 0.067638 -0.01193876)
(-0.06244525 0.07208521 -0.009397408)
(-0.06305569 0.07041075 -0.01016552)
(-0.06159475 0.07069972 -0.009633125)
(-0.06386892 0.0691732 -0.01084)
(-0.06436935 0.06759679 -0.01154121)
(-0.05947927 0.0781631 -0.006388097)
(-0.06060977 0.07754461 -0.006938759)
(-0.05725894 0.08333844 -0.003915668)
(-0.05999741 0.07343036 -0.008203013)
(-0.06064036 0.07197487 -0.008903801)
(-0.06161549 0.06943746 -0.01008253)
(-0.06264786 0.06892853 -0.01056576)
(-0.06299521 0.06773024 -0.01108904)
(-0.06999303 0.09093229 -0.005005)
(-0.06824225 0.09036691 -0.004687144)
(-0.06909032 0.09163295 -0.004492672)
(-0.05951671 0.07633484 -0.007041205)
(-0.05809333 0.07710478 -0.006350972)
(-0.0587228 0.07438935 -0.007490277)
(-0.07975575 0.08042076 -0.0115762)
(-0.07889791 0.08162735 -0.0108994)
(-0.07998679 0.08179427 -0.01116196)
(-0.06040122 0.06850652 -0.01005133)
(-0.06037753 0.07017836 -0.009457204)
(-0.06166579 0.06803592 -0.01058958)
(-0.05611101 0.08414899 -0.003292428)
(-0.0568955 0.08063339 -0.004758441)
(-0.05811742 0.07578131 -0.006822856)
(-0.07789715 0.08086719 -0.01087117)
(-0.0779283 0.08229506 -0.01037892)
(-0.05957871 0.07226124 -0.00849009)
(-0.05895285 0.07116259 -0.008691305)
(-0.05800355 0.07845399 -0.005850661)
(-0.0567952 0.07913862 -0.005253794)
(-0.05674275 0.077723 -0.005735471)
(-0.0571642 0.07480799 -0.006883485)
(-0.05718663 0.07313275 -0.007478429)
(-0.05860126 0.07279035 -0.008015947)
(-0.05813768 0.06990222 -0.008893453)
(-0.05716785 0.0708012 -0.008291696)
(-0.05921969 0.06913239 -0.009482983)
(-0.06436425 0.0809114 -0.006863866)
(-0.06419575 0.07968613 -0.007244475)
(-0.05538568 0.07995095 -0.004552748)
(-0.05688017 0.07629289 -0.006278243)
(-0.05765107 0.0720289 -0.008003072)
(-0.05537878 0.07843854 -0.005081852)
(-0.06312831 0.0815897 -0.006261108)
(-0.05610356 0.07402144 -0.006846862)
(-0.05560235 0.07292458 -0.007084221)
(-0.05501984 0.07411743 -0.006493484)
(-0.05631992 0.07181367 -0.00768601)
(-0.05621627 0.0874279 -0.002171973)
(-0.05551916 0.08135773 -0.004098054)
(-0.05542137 0.07683969 -0.00565591)
(-0.05498812 0.08485459 -0.002713409)
(-0.05586863 0.07524821 -0.00634674)
(-0.05457252 0.07537527 -0.005919822)
(-0.0559078 0.08278725 -0.003710671)
(-0.05407571 0.07802504 -0.004842717)
(-0.05425861 0.07668248 -0.005368135)
(-0.05553782 0.08616623 -0.002414929)
(-0.07571889 0.07295775 -0.01300632)
(-0.05401833 0.07938974 -0.004346515)
(-0.07502192 0.07449454 -0.01226105)
(-0.07329643 0.07558937 -0.01136759)
(-0.0718289 0.07568344 -0.01090168)
(-0.05456531 0.08350845 -0.003061421)
(-0.05408191 0.08076534 -0.003882182)
(-0.05426416 0.08214164 -0.003452617)
(-0.06904799 0.07895381 -0.008932898)
(-0.07041996 0.07883175 -0.009380436)
(-0.06809998 0.07973968 -0.008377276)
(-0.06543919 0.08015304 -0.007447253)
(-0.06692702 0.0807081 -0.007691187)
(-0.06178622 0.08393925 -0.005040084)
(-0.06446213 0.08233623 -0.006392343)
(-0.06048675 0.08475586 -0.004370005)
(-0.07541995 0.09090576 -0.006615098)
(-0.07377454 0.09058005 -0.006244126)
(-0.07412023 0.09227672 -0.005750163)
(-0.07666283 0.07405744 -0.01289857)
(-0.07520851 0.07615778 -0.01173195)
(-0.07625546 0.0753706 -0.01231722)
(-0.07392079 0.07730716 -0.01094846)
(-0.07232612 0.07695928 -0.01060029)
(-0.07171588 0.07817066 -0.009994851)
(-0.06958644 0.08011971 -0.008682244)
(-0.06576104 0.08168451 -0.00700435)
(-0.06330728 0.08318314 -0.005754278)
(-0.07751343 0.07522491 -0.01273943)
(-0.0768507 0.076711 -0.01202205)
(-0.07085939 0.08021443 -0.009024464)
(-0.06861272 0.08139684 -0.007946528)
(-0.06578063 0.08305922 -0.006527349)
(-0.06328648 0.08477314 -0.00518976)
(-0.06181243 0.08535597 -0.00455028)
(-0.05946191 0.0866746 -0.003393868)
(-0.05702464 0.08862159 -0.001991199)
(-0.07685943 0.09009314 -0.007325064)
(-0.07697657 0.09176426 -0.00677274)
(-0.06709219 0.08228052 -0.007187679)
(-0.06460694 0.0839003 -0.005885765)
(-0.05910071 0.08916251 -0.002413627)
(-0.05960796 0.08787023 -0.003017065)
(-0.07291929 0.07832448 -0.01029579)
(-0.07555389 0.07766267 -0.01130532)
(-0.06206587 0.08671018 -0.004149459)
(-0.06074153 0.0860381 -0.003994843)
(-0.07794153 0.08360301 -0.009923486)
(-0.07723348 0.08475252 -0.009310946)
(-0.07871826 0.08455603 -0.009817924)
(-0.06298396 0.08604132 -0.00465516)
(-0.06328326 0.09223142 -0.002569576)
(-0.06402113 0.09356029 -0.002320573)
(-0.06481908 0.09222263 -0.003025691)
(-0.06605931 0.09166543 -0.003587215)
(-0.06654077 0.09043481 -0.004161391)
(-0.06498314 0.0905847 -0.003649294)
(-0.06603709 0.08458842 -0.00606597)
(-0.06723073 0.08383475 -0.00668272)
(-0.06492095 0.08513198 -0.005545842)
(-0.06430812 0.08605923 -0.005039447)
(-0.06351417 0.0871516 -0.00442163)
(-0.06088512 0.08887857 -0.00303967)
(-0.07036743 0.08137181 -0.008472891)
(-0.05796022 0.08972742 -0.001878831)
(-0.05901082 0.09073 -0.001836608)
(-0.06096795 0.08733279 -0.003606949)
(-0.06245804 0.08825748 -0.003721729)
(-0.07855321 0.08965082 -0.007980006)
(-0.07783607 0.0907618 -0.007378338)
(-0.06837574 0.08319204 -0.00724617)
(-0.07207681 0.07961896 -0.009592687)
(-0.07440252 0.07870688 -0.010599)
(-0.07353211 0.07953697 -0.01005074)
(-0.0601608 0.09161769 -0.001864089)
(-0.06049558 0.09020866 -0.002457656)
(-0.06399206 0.08828517 -0.004164496)
(-0.06495601 0.08739839 -0.004760263)
(-0.06840034 0.08447333 -0.006803455)
(-0.07356938 0.08113492 -0.009500558)
(-0.07002255 0.08290389 -0.007833127)
(-0.06139199 0.09238366 -0.001958251)
(-0.06185653 0.09148601 -0.002410514)
(-0.06228068 0.08995757 -0.003072385)
(-0.06370939 0.08960184 -0.003618737)
(-0.06528579 0.08896254 -0.004308232)
(-0.06747974 0.08536734 -0.006217946)
(-0.0660919 0.08629228 -0.005483762)
(-0.07179358 0.08129176 -0.008921682)
(-0.07127094 0.08233004 -0.00840289)
(-0.06268418 0.0930302 -0.002112345)
(-0.06360051 0.09097222 -0.003105359)
(-0.06944229 0.08424439 -0.007191219)
(-0.07105154 0.09302948 -0.004580714)
(-0.07231797 0.09425882 -0.004522553)
(-0.07248414 0.09270231 -0.005118195)
(-0.06924084 0.08562274 -0.006647732)
(-0.06655228 0.08796022 -0.005033806)
(-0.0679492 0.0868613 -0.005831775)
(-0.07825863 0.07645436 -0.01252748)
(-0.07792352 0.07811251 -0.01184632)
(-0.0766711 0.07822207 -0.01143841)
(-0.07572448 0.07915197 -0.01083263)
(-0.07714988 0.07937597 -0.01117441)
(-0.07489563 0.08014829 -0.01023825)
(-0.0753642 0.08167648 -0.009839804)
(-0.07623391 0.08043993 -0.01053058)
(-0.07269102 0.08284299 -0.008641629)
(-0.07147911 0.08348145 -0.00805993)
(-0.07888666 0.07773762 -0.01226207)
(-0.07417579 0.08258752 -0.009169311)
(-0.06693935 0.08927117 -0.004687601)
(-0.06636818 0.09288166 -0.003251192)
(-0.06820944 0.08869495 -0.005264602)
(-0.0695444 0.087677 -0.006015871)
(-0.07146786 0.08663955 -0.006947574)
(-0.07409932 0.08412866 -0.008605557)
(-0.07087225 0.08477695 -0.007425972)
(-0.07247812 0.08454315 -0.007981772)
(-0.07844366 0.07953885 -0.01149886)
(-0.07938799 0.07906395 -0.0119442)
(-0.07685158 0.08166167 -0.01028376)
(-0.07524195 0.08320203 -0.009268018)
(-0.07651592 0.08317706 -0.009652568)
(-0.07567489 0.08448511 -0.008945131)
(-0.07488976 0.08534513 -0.008411504)
(-0.06968976 0.08939125 -0.005456733)
(-0.06538945 0.0939768 -0.002577894)
(-0.0676177 0.09201823 -0.003922978)
(-0.07118241 0.09027985 -0.005584965)
(-0.07116994 0.08865687 -0.006151263)
(-0.07300495 0.08791126 -0.006954351)
(-0.07901012 0.08310439 -0.0104138)
(-0.07351069 0.0860537 -0.007755886)
(-0.07208208 0.08550283 -0.007527955)
(-0.076006 0.08584794 -0.008564178)
(-0.07507125 0.08649643 -0.008060715)
(-0.07476372 0.08767471 -0.007556217)
(-0.07014112 0.09205119 -0.004655722)
(-0.06677797 0.09428088 -0.002880678)
(-0.06772065 0.09330053 -0.003503022)
(-0.06930844 0.09321542 -0.004001263)
(-0.07264419 0.08952677 -0.006280592)
(-0.06817675 0.09446961 -0.003227)
(-0.07639931 0.08748224 -0.008106243)
(-0.07850417 0.08604711 -0.009231104)
(-0.07987254 0.08588292 -0.009692394)
(-0.0800436 0.08453786 -0.01021521)
(-0.08008221 0.08317091 -0.01070668)
(-0.07956841 0.08719324 -0.009142533)
(-0.07728866 0.08630785 -0.008780992)
(-0.07574078 0.08884743 -0.007432561)
(-0.07451336 0.08925124 -0.006928712)
(-0.07124208 0.09163342 -0.005127196)
(-0.07563347 0.08977435 -0.007075401)
(-0.0724953 0.09110037 -0.005684044)
(-0.077156 0.08872471 -0.007893114)
(-0.07805671 0.08758141 -0.008560298)
(-0.0695753 0.09453623 -0.003616129)
(-0.07912962 0.08845472 -0.008570079)
(-0.07096115 0.09447062 -0.00404797)
(-0.07362343 0.09388517 -0.005038836)
(-0.07485268 0.09334353 -0.005591657)
(-0.07597728 0.09263157 -0.006173374)
)


// edges:

843
(
(0 1)
(3 1)
(1 4)
(5 3)
(4 5)
(8 9)
(7 8)
(11 12)
(0 13)
(12 0)
(14 12)
(3 15)
(18 19)
(23 21)
(21 22)
(24 25)
(24 27)
(27 28)
(29 25)
(24 29)
(30 7)
(32 11)
(33 9)
(34 12)
(14 36)
(8 32)
(37 8)
(39 35)
(38 39)
(38 15)
(38 36)
(17 38)
(43 44)
(46 24)
(25 47)
(30 47)
(47 31)
(33 48)
(10 49)
(49 33)
(35 51)
(14 49)
(51 49)
(22 52)
(52 23)
(27 52)
(53 54)
(45 53)
(55 27)
(33 56)
(51 50)
(58 59)
(62 39)
(39 63)
(41 43)
(52 64)
(65 46)
(66 47)
(67 66)
(67 48)
(49 60)
(68 62)
(69 65)
(65 66)
(67 70)
(70 66)
(67 71)
(56 72)
(73 72)
(59 73)
(62 74)
(70 69)
(72 76)
(76 77)
(78 76)
(79 77)
(73 79)
(74 80)
(80 79)
(55 82)
(82 81)
(83 45)
(83 43)
(64 53)
(53 23)
(65 82)
(76 70)
(85 76)
(78 85)
(77 87)
(87 86)
(88 87)
(52 81)
(81 92)
(69 92)
(94 69)
(96 97)
(85 70)
(99 86)
(86 98)
(86 78)
(100 86)
(102 53)
(103 92)
(105 96)
(96 104)
(107 85)
(81 108)
(109 102)
(64 109)
(110 108)
(111 103)
(113 112)
(107 114)
(84 113)
(99 116)
(28 117)
(109 119)
(111 120)
(113 121)
(121 112)
(112 111)
(107 121)
(109 122)
(122 119)
(110 109)
(109 108)
(120 110)
(121 127)
(115 121)
(42 83)
(102 129)
(119 129)
(124 111)
(131 18)
(130 122)
(130 132)
(126 132)
(111 132)
(83 134)
(134 101)
(129 134)
(136 130)
(137 18)
(4 138)
(122 139)
(139 119)
(140 138)
(141 1)
(142 0)
(34 142)
(144 129)
(134 143)
(32 147)
(148 8)
(149 37)
(29 149)
(150 37)
(149 150)
(23 44)
(44 151)
(152 117)
(43 153)
(155 156)
(156 154)
(159 140)
(158 159)
(140 158)
(141 160)
(160 158)
(158 141)
(142 161)
(161 160)
(162 34)
(147 162)
(163 146)
(148 163)
(149 117)
(164 149)
(21 165)
(159 166)
(167 166)
(158 167)
(163 147)
(163 168)
(169 163)
(150 169)
(152 164)
(151 165)
(172 151)
(173 41)
(174 19)
(176 175)
(177 150)
(164 177)
(165 152)
(178 152)
(165 178)
(180 19)
(19 173)
(177 169)
(162 181)
(160 182)
(172 184)
(153 184)
(187 185)
(185 186)
(172 171)
(172 188)
(191 189)
(193 194)
(170 178)
(170 177)
(170 196)
(178 171)
(197 178)
(171 198)
(198 197)
(200 180)
(182 167)
(201 163)
(169 201)
(203 179)
(200 205)
(205 204)
(206 175)
(208 177)
(196 208)
(209 181)
(181 160)
(210 160)
(211 210)
(181 211)
(208 169)
(213 203)
(199 205)
(214 199)
(205 214)
(214 215)
(216 208)
(199 198)
(168 209)
(210 182)
(217 211)
(211 209)
(201 168)
(208 218)
(220 213)
(221 213)
(221 205)
(214 223)
(224 196)
(225 224)
(224 216)
(194 223)
(201 226)
(201 227)
(218 201)
(228 220)
(229 221)
(220 229)
(229 222)
(229 194)
(231 232)
(234 216)
(236 224)
(167 237)
(167 238)
(167 239)
(239 238)
(240 239)
(241 239)
(244 242)
(243 244)
(210 240)
(242 240)
(211 242)
(245 217)
(217 226)
(217 242)
(227 246)
(246 245)
(218 246)
(236 234)
(191 194)
(229 191)
(238 247)
(241 238)
(244 240)
(248 217)
(245 248)
(248 243)
(223 235)
(229 189)
(193 249)
(249 223)
(191 250)
(236 251)
(254 248)
(256 246)
(255 256)
(246 255)
(256 245)
(244 241)
(104 241)
(244 104)
(261 243)
(251 249)
(257 95)
(254 263)
(251 264)
(264 252)
(265 191)
(193 266)
(266 91)
(264 267)
(269 253)
(186 261)
(185 270)
(105 185)
(261 185)
(89 264)
(269 271)
(270 97)
(255 253)
(263 273)
(263 274)
(276 89)
(91 276)
(277 278)
(266 279)
(267 280)
(282 274)
(186 283)
(283 284)
(270 285)
(285 187)
(288 273)
(282 288)
(288 186)
(288 283)
(275 289)
(289 282)
(290 289)
(269 290)
(280 269)
(280 290)
(276 291)
(279 276)
(278 279)
(266 278)
(293 280)
(289 294)
(288 295)
(295 283)
(276 231)
(293 291)
(279 231)
(289 175)
(296 279)
(293 156)
(295 297)
(295 206)
(233 156)
(256 271)
(156 299)
(255 234)
(271 274)
(218 255)
(189 228)
(250 266)
(74 73)
(55 52)
(82 92)
(174 179)
(204 180)
(156 301)
(184 41)
(173 184)
(204 184)
(173 204)
(213 200)
(197 225)
(235 236)
(249 235)
(1 2)
(2 0)
(4 3)
(3 2)
(6 3)
(9 7)
(10 11)
(12 10)
(13 12)
(2 13)
(13 14)
(2 15)
(15 13)
(3 16)
(16 15)
(6 16)
(17 16)
(20 18)
(19 20)
(22 23)
(26 24)
(25 26)
(28 24)
(29 30)
(30 25)
(7 31)
(31 30)
(9 31)
(11 9)
(9 32)
(10 9)
(10 33)
(11 34)
(35 14)
(36 35)
(32 34)
(37 7)
(30 37)
(14 10)
(13 36)
(29 37)
(15 36)
(35 38)
(16 38)
(40 38)
(41 42)
(42 20)
(20 41)
(45 43)
(44 45)
(26 46)
(46 27)
(47 26)
(31 48)
(48 47)
(31 33)
(39 50)
(50 35)
(51 14)
(22 27)
(54 45)
(46 55)
(56 48)
(49 57)
(57 33)
(58 51)
(50 58)
(60 58)
(59 60)
(58 49)
(39 61)
(61 62)
(62 50)
(43 42)
(64 23)
(26 65)
(47 67)
(56 67)
(66 26)
(60 57)
(42 18)
(66 69)
(71 70)
(56 71)
(72 71)
(72 60)
(60 73)
(56 60)
(74 50)
(75 62)
(75 74)
(76 71)
(73 77)
(77 72)
(77 78)
(79 74)
(81 55)
(54 83)
(82 46)
(84 69)
(70 84)
(86 77)
(79 87)
(79 88)
(81 64)
(90 91)
(89 90)
(91 89)
(92 93)
(93 81)
(92 65)
(84 94)
(95 96)
(98 99)
(87 100)
(42 101)
(101 18)
(64 102)
(102 54)
(92 94)
(94 103)
(104 105)
(84 85)
(85 106)
(106 84)
(85 99)
(99 107)
(99 78)
(108 64)
(93 110)
(108 93)
(94 111)
(103 93)
(94 113)
(112 94)
(115 107)
(107 106)
(116 107)
(118 28)
(117 118)
(119 102)
(118 24)
(22 28)
(103 120)
(120 93)
(113 107)
(110 122)
(123 28)
(22 123)
(126 124)
(124 125)
(127 112)
(18 128)
(128 19)
(83 101)
(129 54)
(130 110)
(120 130)
(112 124)
(125 112)
(101 131)
(132 133)
(133 130)
(132 124)
(132 120)
(134 54)
(135 122)
(130 135)
(4 140)
(1 140)
(0 141)
(141 140)
(12 142)
(142 141)
(101 143)
(144 119)
(145 129)
(8 146)
(146 32)
(147 34)
(37 148)
(118 29)
(44 21)
(151 21)
(118 149)
(123 117)
(123 152)
(153 44)
(154 155)
(140 157)
(159 157)
(161 141)
(148 146)
(162 161)
(161 34)
(146 147)
(150 148)
(117 164)
(21 123)
(165 123)
(159 167)
(168 147)
(148 169)
(153 151)
(152 170)
(170 164)
(151 171)
(171 165)
(153 172)
(20 173)
(175 154)
(154 176)
(150 164)
(179 180)
(19 179)
(181 161)
(182 158)
(57 56)
(183 172)
(184 183)
(186 187)
(188 171)
(190 191)
(189 190)
(194 192)
(192 193)
(195 170)
(178 195)
(183 188)
(196 177)
(195 196)
(171 197)
(188 198)
(183 199)
(199 188)
(179 200)
(179 202)
(204 200)
(175 207)
(197 195)
(162 209)
(181 210)
(212 213)
(183 205)
(215 199)
(196 216)
(209 147)
(209 217)
(218 169)
(220 212)
(219 220)
(220 221)
(200 221)
(222 205)
(221 222)
(222 214)
(223 215)
(215 198)
(195 224)
(195 225)
(215 225)
(225 198)
(223 222)
(222 194)
(226 168)
(227 226)
(218 227)
(230 208)
(216 230)
(233 231)
(232 233)
(224 234)
(230 218)
(215 235)
(235 225)
(225 236)
(238 237)
(182 240)
(239 182)
(240 241)
(242 243)
(210 242)
(245 226)
(227 245)
(234 230)
(217 243)
(191 192)
(223 193)
(250 192)
(252 236)
(251 252)
(252 234)
(90 249)
(193 90)
(252 253)
(253 234)
(245 254)
(257 238)
(241 257)
(258 238)
(257 258)
(259 244)
(243 259)
(104 257)
(259 104)
(260 248)
(254 260)
(260 243)
(260 261)
(256 254)
(90 251)
(261 259)
(262 261)
(260 262)
(262 254)
(263 262)
(90 264)
(265 250)
(266 90)
(267 268)
(268 264)
(253 268)
(268 269)
(262 186)
(105 259)
(261 105)
(105 270)
(270 96)
(187 270)
(271 253)
(272 255)
(253 272)
(272 256)
(262 273)
(273 186)
(274 273)
(269 275)
(275 271)
(252 268)
(89 267)
(277 250)
(278 250)
(279 91)
(280 268)
(281 278)
(275 282)
(274 275)
(283 187)
(284 187)
(286 270)
(283 287)
(273 282)
(275 290)
(291 89)
(292 290)
(154 292)
(290 154)
(291 267)
(292 289)
(267 293)
(293 155)
(155 280)
(294 282)
(282 295)
(294 295)
(231 291)
(233 293)
(291 233)
(294 175)
(206 294)
(295 287)
(175 292)
(279 281)
(279 298)
(298 231)
(254 271)
(271 263)
(300 156)
(271 272)
(233 299)
(154 301)
(95 104)
(230 255)
(40 39)
(266 192)
(220 189)
(45 23)
(50 59)
(74 59)
(134 145)
(41 153)
(204 183)
(173 180)
(179 213)
(226 209)
(235 251)
(155 290)
(113 106)
(5 6)
(6 17)
(17 40)
(63 61)
(61 68)
(68 75)
(75 80)
(80 88)
(97 95)
(88 100)
(100 98)
(114 115)
(98 116)
(125 126)
(127 125)
(115 127)
(126 133)
(133 136)
(131 137)
(138 5)
(143 131)
(135 139)
(136 135)
(139 144)
(144 145)
(157 138)
(137 128)
(166 157)
(128 174)
(202 203)
(207 206)
(203 212)
(212 219)
(219 228)
(237 166)
(247 237)
(258 247)
(95 258)
(190 265)
(265 277)
(277 281)
(285 286)
(284 285)
(287 284)
(281 296)
(297 287)
(206 297)
(296 298)
(116 114)
(299 300)
(298 232)
(301 176)
(286 97)
(228 190)
(176 207)
(232 299)
(145 143)
(174 202)
(300 301)
(40 63)
)

// * * * * * * * * * * * * * * * * * * * * * * * * * * * * * * * * * * * * * //


// ************************************************************************* //
