FoamFile
{
    version     2.0;
    format      ascii;
    class       dictionary;
    location    "constant";
    object      flowrate;
}

// Set to "yes" to repeat the table periodically after it reaches the end.
// If omitted or set to "no", the last value will be held constant.
repeat  yes;

values
(
(0.00000000	0.00005258)
(0.00100000	0.00005511)
(0.00200000	0.00005765)
(0.00300000	0.00006018)
(0.00400000	0.00006271)
(0.00500000	0.00006525)
(0.00600000	0.00006778)
(0.00700000	0.00007032)
(0.00800000	0.00007285)
(0.00900000	0.00007538)
(0.01000000	0.00007792)
(0.01100000	0.00008045)
(0.01200000	0.00008298)
(0.01300000	0.00008552)
(0.01400000	0.00008805)
(0.01500000	0.00009059)
(0.01600000	0.00009312)
(0.01700000	0.00009565)
(0.01800000	0.00009819)
(0.01900000	0.00010072)
(0.02000000	0.00010326)
(0.02100000	0.00010579)
(0.02200000	0.00010832)
(0.02300000	0.00011086)
(0.02400000	0.00011339)
(0.02500000	0.00011592)
(0.02600000	0.00011846)
(0.02700000	0.00012099)
(0.02800000	0.00012353)
(0.02900000	0.00012606)
(0.03000000	0.00012859)
(0.03100000	0.00013113)
(0.03200000	0.00013366)
(0.03300000	0.00013619)
(0.03400000	0.00013873)
(0.03500000	0.00014126)
(0.03600000	0.00014380)
(0.03700000	0.00014633)
(0.03800000	0.00014886)
(0.03900000	0.00015140)
(0.04000000	0.00015393)
(0.04100000	0.00015653)
(0.04200000	0.00015913)
(0.04300000	0.00016172)
(0.04400000	0.00016432)
(0.04500000	0.00016692)
(0.04600000	0.00016952)
(0.04700000	0.00017211)
(0.04800000	0.00017471)
(0.04900000	0.00017731)
(0.05000000	0.00017991)
(0.05100000	0.00018250)
(0.05200000	0.00018510)
(0.05300000	0.00018770)
(0.05400000	0.00019030)
(0.05500000	0.00019289)
(0.05600000	0.00019549)
(0.05700000	0.00019809)
(0.05800000	0.00020069)
(0.05900000	0.00020328)
(0.06000000	0.00020588)
(0.06100000	0.00020848)
(0.06200000	0.00021108)
(0.06300000	0.00021368)
(0.06400000	0.00021627)
(0.06500000	0.00021887)
(0.06600000	0.00022147)
(0.06700000	0.00022407)
(0.06800000	0.00022666)
(0.06900000	0.00022926)
(0.07000000	0.00023186)
(0.07100000	0.00023446)
(0.07200000	0.00023705)
(0.07300000	0.00023965)
(0.07400000	0.00024225)
(0.07500000	0.00024485)
(0.07600000	0.00024744)
(0.07700000	0.00025004)
(0.07800000	0.00025264)
(0.07900000	0.00025524)
(0.08000000	0.00025783)
(0.08100000	0.00025924)
(0.08200000	0.00026064)
(0.08300000	0.00026204)
(0.08400000	0.00026344)
(0.08500000	0.00026485)
(0.08600000	0.00026625)
(0.08700000	0.00026765)
(0.08800000	0.00026905)
(0.08900000	0.00027046)
(0.09000000	0.00027186)
(0.09100000	0.00027326)
(0.09200000	0.00027466)
(0.09300000	0.00027606)
(0.09400000	0.00027747)
(0.09500000	0.00027887)
(0.09600000	0.00028027)
(0.09700000	0.00028167)
(0.09800000	0.00028308)
(0.09900000	0.00028448)
(0.10000000	0.00028588)
(0.10100000	0.00028728)
(0.10200000	0.00028869)
(0.10300000	0.00029009)
(0.10400000	0.00029149)
(0.10500000	0.00029289)
(0.10600000	0.00029430)
(0.10700000	0.00029570)
(0.10800000	0.00029710)
(0.10900000	0.00029850)
(0.11000000	0.00029991)
(0.11100000	0.00030131)
(0.11200000	0.00030271)
(0.11300000	0.00030411)
(0.11400000	0.00030552)
(0.11500000	0.00030692)
(0.11600000	0.00030832)
(0.11700000	0.00030972)
(0.11800000	0.00031112)
(0.11900000	0.00031253)
(0.12000000	0.00031393)
(0.12100000	0.00031448)
(0.12200000	0.00031504)
(0.12300000	0.00031559)
(0.12400000	0.00031615)
(0.12500000	0.00031670)
(0.12600000	0.00031726)
(0.12700000	0.00031781)
(0.12800000	0.00031837)
(0.12900000	0.00031892)
(0.13000000	0.00031948)
(0.13100000	0.00032003)
(0.13200000	0.00032059)
(0.13300000	0.00032114)
(0.13400000	0.00032170)
(0.13500000	0.00032225)
(0.13600000	0.00032281)
(0.13700000	0.00032336)
(0.13800000	0.00032391)
(0.13900000	0.00032447)
(0.14000000	0.00032502)
(0.14100000	0.00032558)
(0.14200000	0.00032613)
(0.14300000	0.00032669)
(0.14400000	0.00032724)
(0.14500000	0.00032780)
(0.14600000	0.00032835)
(0.14700000	0.00032891)
(0.14800000	0.00032946)
(0.14900000	0.00033002)
(0.15000000	0.00033057)
(0.15100000	0.00033113)
(0.15200000	0.00033168)
(0.15300000	0.00033224)
(0.15400000	0.00033279)
(0.15500000	0.00033335)
(0.15600000	0.00033390)
(0.15700000	0.00033445)
(0.15800000	0.00033501)
(0.15900000	0.00033556)
(0.16000000	0.00033612)
(0.16100000	0.00033604)
(0.16200000	0.00033596)
(0.16300000	0.00033589)
(0.16400000	0.00033581)
(0.16500000	0.00033573)
(0.16600000	0.00033565)
(0.16700000	0.00033558)
(0.16800000	0.00033550)
(0.16900000	0.00033542)
(0.17000000	0.00033534)
(0.17100000	0.00033527)
(0.17200000	0.00033519)
(0.17300000	0.00033511)
(0.17400000	0.00033503)
(0.17500000	0.00033496)
(0.17600000	0.00033488)
(0.17700000	0.00033480)
(0.17800000	0.00033472)
(0.17900000	0.00033465)
(0.18000000	0.00033457)
(0.18100000	0.00033449)
(0.18200000	0.00033441)
(0.18300000	0.00033434)
(0.18400000	0.00033426)
(0.18500000	0.00033418)
(0.18600000	0.00033410)
(0.18700000	0.00033403)
(0.18800000	0.00033395)
(0.18900000	0.00033387)
(0.19000000	0.00033379)
(0.19100000	0.00033372)
(0.19200000	0.00033364)
(0.19300000	0.00033356)
(0.19400000	0.00033348)
(0.19500000	0.00033341)
(0.19600000	0.00033333)
(0.19700000	0.00033325)
(0.19800000	0.00033317)
(0.19900000	0.00033309)
(0.20000000	0.00033302)
(0.20100000	0.00033225)
(0.20200000	0.00033147)
(0.20300000	0.00033070)
(0.20400000	0.00032993)
(0.20500000	0.00032916)
(0.20600000	0.00032838)
(0.20700000	0.00032761)
(0.20800000	0.00032684)
(0.20900000	0.00032607)
(0.21000000	0.00032530)
(0.21100000	0.00032452)
(0.21200000	0.00032375)
(0.21300000	0.00032298)
(0.21400000	0.00032221)
(0.21500000	0.00032143)
(0.21600000	0.00032066)
(0.21700000	0.00031989)
(0.21800000	0.00031912)
(0.21900000	0.00031835)
(0.22000000	0.00031757)
(0.22100000	0.00031680)
(0.22200000	0.00031603)
(0.22300000	0.00031526)
(0.22400000	0.00031449)
(0.22500000	0.00031371)
(0.22600000	0.00031294)
(0.22700000	0.00031217)
(0.22800000	0.00031140)
(0.22900000	0.00031062)
(0.23000000	0.00030985)
(0.23100000	0.00030908)
(0.23200000	0.00030831)
(0.23300000	0.00030754)
(0.23400000	0.00030676)
(0.23500000	0.00030599)
(0.23600000	0.00030522)
(0.23700000	0.00030445)
(0.23800000	0.00030367)
(0.23900000	0.00030290)
(0.24000000	0.00030213)
(0.24100000	0.00030085)
(0.24200000	0.00029956)
(0.24300000	0.00029828)
(0.24400000	0.00029700)
(0.24500000	0.00029571)
(0.24600000	0.00029443)
(0.24700000	0.00029315)
(0.24800000	0.00029186)
(0.24900000	0.00029058)
(0.25000000	0.00028930)
(0.25100000	0.00028801)
(0.25200000	0.00028673)
(0.25300000	0.00028544)
(0.25400000	0.00028416)
(0.25500000	0.00028288)
(0.25600000	0.00028159)
(0.25700000	0.00028031)
(0.25800000	0.00027903)
(0.25900000	0.00027774)
(0.26000000	0.00027646)
(0.26100000	0.00027518)
(0.26200000	0.00027389)
(0.26300000	0.00027261)
(0.26400000	0.00027133)
(0.26500000	0.00027004)
(0.26600000	0.00026876)
(0.26700000	0.00026748)
(0.26800000	0.00026619)
(0.26900000	0.00026491)
(0.27000000	0.00026363)
(0.27100000	0.00026234)
(0.27200000	0.00026106)
(0.27300000	0.00025978)
(0.27400000	0.00025849)
(0.27500000	0.00025721)
(0.27600000	0.00025592)
(0.27700000	0.00025464)
(0.27800000	0.00025336)
(0.27900000	0.00025207)
(0.28000000	0.00025079)
(0.28100000	0.00024883)
(0.28200000	0.00024687)
(0.28300000	0.00024490)
(0.28400000	0.00024294)
(0.28500000	0.00024098)
(0.28600000	0.00023902)
(0.28700000	0.00023705)
(0.28800000	0.00023509)
(0.28900000	0.00023313)
(0.29000000	0.00023117)
(0.29100000	0.00022920)
(0.29200000	0.00022724)
(0.29300000	0.00022528)
(0.29400000	0.00022332)
(0.29500000	0.00022135)
(0.29600000	0.00021939)
(0.29700000	0.00021743)
(0.29800000	0.00021547)
(0.29900000	0.00021351)
(0.30000000	0.00021154)
(0.30100000	0.00020958)
(0.30200000	0.00020762)
(0.30300000	0.00020566)
(0.30400000	0.00020369)
(0.30500000	0.00020173)
(0.30600000	0.00019977)
(0.30700000	0.00019781)
(0.30800000	0.00019584)
(0.30900000	0.00019388)
(0.31000000	0.00019192)
(0.31100000	0.00018996)
(0.31200000	0.00018799)
(0.31300000	0.00018603)
(0.31400000	0.00018407)
(0.31500000	0.00018211)
(0.31600000	0.00018014)
(0.31700000	0.00017818)
(0.31800000	0.00017622)
(0.31900000	0.00017426)
(0.32000000	0.00017229)
(0.32100000	0.00016984)
(0.32200000	0.00016739)
(0.32300000	0.00016494)
(0.32400000	0.00016249)
(0.32500000	0.00016004)
(0.32600000	0.00015759)
(0.32700000	0.00015514)
(0.32800000	0.00015269)
(0.32900000	0.00015024)
(0.33000000	0.00014778)
(0.33100000	0.00014533)
(0.33200000	0.00014288)
(0.33300000	0.00014043)
(0.33400000	0.00013798)
(0.33500000	0.00013553)
(0.33600000	0.00013308)
(0.33700000	0.00013063)
(0.33800000	0.00012818)
(0.33900000	0.00012573)
(0.34000000	0.00012327)
(0.34100000	0.00012082)
(0.34200000	0.00011837)
(0.34300000	0.00011592)
(0.34400000	0.00011347)
(0.34500000	0.00011102)
(0.34600000	0.00010857)
(0.34700000	0.00010612)
(0.34800000	0.00010367)
(0.34900000	0.00010122)
(0.35000000	0.00009876)
(0.35100000	0.00009631)
(0.35200000	0.00009386)
(0.35300000	0.00009141)
(0.35400000	0.00008896)
(0.35500000	0.00008651)
(0.35600000	0.00008406)
(0.35700000	0.00008161)
(0.35800000	0.00007916)
(0.35900000	0.00007671)
(0.36000000	0.00007425)
(0.36100000	0.00007248)
(0.36200000	0.00007071)
(0.36300000	0.00006894)
(0.36400000	0.00006717)
(0.36500000	0.00006539)
(0.36600000	0.00006362)
(0.36700000	0.00006185)
(0.36800000	0.00006008)
(0.36900000	0.00005831)
(0.37000000	0.00005654)
(0.37100000	0.00005476)
(0.37200000	0.00005299)
(0.37300000	0.00005122)
(0.37400000	0.00004945)
(0.37500000	0.00004768)
(0.37600000	0.00004590)
(0.37700000	0.00004413)
(0.37800000	0.00004236)
(0.37900000	0.00004059)
(0.38000000	0.00003882)
(0.38100000	0.00003704)
(0.38200000	0.00003527)
(0.38300000	0.00003350)
(0.38400000	0.00003173)
(0.38500000	0.00002996)
(0.38600000	0.00002818)
(0.38700000	0.00002641)
(0.38800000	0.00002464)
(0.38900000	0.00002287)
(0.39000000	0.00002110)
(0.39100000	0.00001932)
(0.39200000	0.00001755)
(0.39300000	0.00001578)
(0.39400000	0.00001401)
(0.39500000	0.00001224)
(0.39600000	0.00001046)
(0.39700000	0.00000869)
(0.39800000	0.00000692)
(0.39900000	0.00000515)
(0.40000000	0.00000338)
(0.40100000	0.00000294)
(0.40200000	0.00000249)
(0.40300000	0.00000205)
(0.40400000	0.00000161)
(0.40500000	0.00000117)
(0.40600000	0.00000073)
(0.40700000	0.00000028)
(0.40800000	-0.00000016)
(0.40900000	-0.00000060)
(0.41000000	-0.00000104)
(0.41100000	-0.00000148)
(0.41200000	-0.00000192)
(0.41300000	-0.00000237)
(0.41400000	-0.00000281)
(0.41500000	-0.00000325)
(0.41600000	-0.00000369)
(0.41700000	-0.00000413)
(0.41800000	-0.00000457)
(0.41900000	-0.00000502)
(0.42000000	-0.00000546)
(0.42100000	-0.00000590)
(0.42200000	-0.00000634)
(0.42300000	-0.00000678)
(0.42400000	-0.00000722)
(0.42500000	-0.00000767)
(0.42600000	-0.00000811)
(0.42700000	-0.00000855)
(0.42800000	-0.00000899)
(0.42900000	-0.00000943)
(0.43000000	-0.00000987)
(0.43100000	-0.00001032)
(0.43200000	-0.00001076)
(0.43300000	-0.00001120)
(0.43400000	-0.00001164)
(0.43500000	-0.00001208)
(0.43600000	-0.00001252)
(0.43700000	-0.00001297)
(0.43800000	-0.00001341)
(0.43900000	-0.00001385)
(0.44000000	-0.00001429)
(0.44100000	-0.00001407)
(0.44200000	-0.00001384)
(0.44300000	-0.00001361)
(0.44400000	-0.00001339)
(0.44500000	-0.00001316)
(0.44600000	-0.00001294)
(0.44700000	-0.00001271)
(0.44800000	-0.00001248)
(0.44900000	-0.00001226)
(0.45000000	-0.00001203)
(0.45100000	-0.00001181)
(0.45200000	-0.00001158)
(0.45300000	-0.00001135)
(0.45400000	-0.00001113)
(0.45500000	-0.00001090)
(0.45600000	-0.00001068)
(0.45700000	-0.00001045)
(0.45800000	-0.00001022)
(0.45900000	-0.00001000)
(0.46000000	-0.00000977)
(0.46100000	-0.00000955)
(0.46200000	-0.00000932)
(0.46300000	-0.00000909)
(0.46400000	-0.00000887)
(0.46500000	-0.00000864)
(0.46600000	-0.00000842)
(0.46700000	-0.00000819)
(0.46800000	-0.00000796)
(0.46900000	-0.00000774)
(0.47000000	-0.00000751)
(0.47100000	-0.00000729)
(0.47200000	-0.00000706)
(0.47300000	-0.00000684)
(0.47400000	-0.00000661)
(0.47500000	-0.00000638)
(0.47600000	-0.00000616)
(0.47700000	-0.00000593)
(0.47800000	-0.00000571)
(0.47900000	-0.00000548)
(0.48000000	-0.00000525)
(0.48100000	-0.00000502)
(0.48200000	-0.00000480)
(0.48300000	-0.00000457)
(0.48400000	-0.00000434)
(0.48500000	-0.00000411)
(0.48600000	-0.00000388)
(0.48700000	-0.00000365)
(0.48800000	-0.00000342)
(0.48900000	-0.00000319)
(0.49000000	-0.00000296)
(0.49100000	-0.00000273)
(0.49200000	-0.00000251)
(0.49300000	-0.00000228)
(0.49400000	-0.00000205)
(0.49500000	-0.00000182)
(0.49600000	-0.00000159)
(0.49700000	-0.00000136)
(0.49800000	-0.00000113)
(0.49900000	-0.00000090)
(0.50000000	-0.00000067)
(0.50100000	-0.00000044)
(0.50200000	-0.00000021)
(0.50300000	0.00000001)
(0.50400000	0.00000024)
(0.50500000	0.00000047)
(0.50600000	0.00000070)
(0.50700000	0.00000093)
(0.50800000	0.00000116)
(0.50900000	0.00000139)
(0.51000000	0.00000162)
(0.51100000	0.00000185)
(0.51200000	0.00000208)
(0.51300000	0.00000230)
(0.51400000	0.00000253)
(0.51500000	0.00000276)
(0.51600000	0.00000299)
(0.51700000	0.00000322)
(0.51800000	0.00000345)
(0.51900000	0.00000368)
(0.52000000	0.00000391)
(0.52100000	0.00000413)
(0.52200000	0.00000434)
(0.52300000	0.00000456)
(0.52400000	0.00000478)
(0.52500000	0.00000500)
(0.52600000	0.00000522)
(0.52700000	0.00000543)
(0.52800000	0.00000565)
(0.52900000	0.00000587)
(0.53000000	0.00000609)
(0.53100000	0.00000631)
(0.53200000	0.00000652)
(0.53300000	0.00000674)
(0.53400000	0.00000696)
(0.53500000	0.00000718)
(0.53600000	0.00000740)
(0.53700000	0.00000761)
(0.53800000	0.00000783)
(0.53900000	0.00000805)
(0.54000000	0.00000827)
(0.54100000	0.00000849)
(0.54200000	0.00000870)
(0.54300000	0.00000892)
(0.54400000	0.00000914)
(0.54500000	0.00000936)
(0.54600000	0.00000958)
(0.54700000	0.00000979)
(0.54800000	0.00001001)
(0.54900000	0.00001023)
(0.55000000	0.00001045)
(0.55100000	0.00001067)
(0.55200000	0.00001088)
(0.55300000	0.00001110)
(0.55400000	0.00001132)
(0.55500000	0.00001154)
(0.55600000	0.00001176)
(0.55700000	0.00001197)
(0.55800000	0.00001219)
(0.55900000	0.00001241)
(0.56000000	0.00001263)
(0.56100000	0.00001272)
(0.56200000	0.00001281)
(0.56300000	0.00001291)
(0.56400000	0.00001300)
(0.56500000	0.00001309)
(0.56600000	0.00001319)
(0.56700000	0.00001328)
(0.56800000	0.00001337)
(0.56900000	0.00001346)
(0.57000000	0.00001356)
(0.57100000	0.00001365)
(0.57200000	0.00001374)
(0.57300000	0.00001384)
(0.57400000	0.00001393)
(0.57500000	0.00001402)
(0.57600000	0.00001411)
(0.57700000	0.00001421)
(0.57800000	0.00001430)
(0.57900000	0.00001439)
(0.58000000	0.00001449)
(0.58100000	0.00001458)
(0.58200000	0.00001467)
(0.58300000	0.00001476)
(0.58400000	0.00001486)
(0.58500000	0.00001495)
(0.58600000	0.00001504)
(0.58700000	0.00001514)
(0.58800000	0.00001523)
(0.58900000	0.00001532)
(0.59000000	0.00001541)
(0.59100000	0.00001551)
(0.59200000	0.00001560)
(0.59300000	0.00001569)
(0.59400000	0.00001579)
(0.59500000	0.00001588)
(0.59600000	0.00001597)
(0.59700000	0.00001606)
(0.59800000	0.00001616)
(0.59900000	0.00001625)
(0.60000000	0.00001634)
(0.60100000	0.00001619)
(0.60200000	0.00001604)
(0.60300000	0.00001590)
(0.60400000	0.00001575)
(0.60500000	0.00001560)
(0.60600000	0.00001545)
(0.60700000	0.00001530)
(0.60800000	0.00001515)
(0.60900000	0.00001500)
(0.61000000	0.00001485)
(0.61100000	0.00001471)
(0.61200000	0.00001456)
(0.61300000	0.00001441)
(0.61400000	0.00001426)
(0.61500000	0.00001411)
(0.61600000	0.00001396)
(0.61700000	0.00001381)
(0.61800000	0.00001366)
(0.61900000	0.00001351)
(0.62000000	0.00001337)
(0.62100000	0.00001322)
(0.62200000	0.00001307)
(0.62300000	0.00001292)
(0.62400000	0.00001277)
(0.62500000	0.00001262)
(0.62600000	0.00001247)
(0.62700000	0.00001232)
(0.62800000	0.00001217)
(0.62900000	0.00001203)
(0.63000000	0.00001188)
(0.63100000	0.00001173)
(0.63200000	0.00001158)
(0.63300000	0.00001143)
(0.63400000	0.00001128)
(0.63500000	0.00001113)
(0.63600000	0.00001098)
(0.63700000	0.00001083)
(0.63800000	0.00001069)
(0.63900000	0.00001054)
(0.64000000	0.00001039)
(0.64100000	0.00001023)
(0.64200000	0.00001007)
(0.64300000	0.00000991)
(0.64400000	0.00000975)
(0.64500000	0.00000959)
(0.64600000	0.00000943)
(0.64700000	0.00000927)
(0.64800000	0.00000911)
(0.64900000	0.00000895)
(0.65000000	0.00000879)
(0.65100000	0.00000863)
(0.65200000	0.00000847)
(0.65300000	0.00000831)
(0.65400000	0.00000815)
(0.65500000	0.00000799)
(0.65600000	0.00000783)
(0.65700000	0.00000767)
(0.65800000	0.00000751)
(0.65900000	0.00000735)
(0.66000000	0.00000719)
(0.66100000	0.00000703)
(0.66200000	0.00000687)
(0.66300000	0.00000671)
(0.66400000	0.00000655)
(0.66500000	0.00000639)
(0.66600000	0.00000623)
(0.66700000	0.00000607)
(0.66800000	0.00000591)
(0.66900000	0.00000575)
(0.67000000	0.00000559)
(0.67100000	0.00000543)
(0.67200000	0.00000527)
(0.67300000	0.00000511)
(0.67400000	0.00000495)
(0.67500000	0.00000479)
(0.67600000	0.00000463)
(0.67700000	0.00000447)
(0.67800000	0.00000431)
(0.67900000	0.00000415)
(0.68000000	0.00000400)
(0.68100000	0.00000386)
(0.68200000	0.00000373)
(0.68300000	0.00000360)
(0.68400000	0.00000347)
(0.68500000	0.00000334)
(0.68600000	0.00000321)
(0.68700000	0.00000308)
(0.68800000	0.00000295)
(0.68900000	0.00000282)
(0.69000000	0.00000269)
(0.69100000	0.00000255)
(0.69200000	0.00000242)
(0.69300000	0.00000229)
(0.69400000	0.00000216)
(0.69500000	0.00000203)
(0.69600000	0.00000190)
(0.69700000	0.00000177)
(0.69800000	0.00000164)
(0.69900000	0.00000151)
(0.70000000	0.00000138)
(0.70100000	0.00000125)
(0.70200000	0.00000111)
(0.70300000	0.00000098)
(0.70400000	0.00000085)
(0.70500000	0.00000072)
(0.70600000	0.00000059)
(0.70700000	0.00000046)
(0.70800000	0.00000033)
(0.70900000	0.00000020)
(0.71000000	0.00000007)
(0.71100000	-0.00000006)
(0.71200000	-0.00000019)
(0.71300000	-0.00000033)
(0.71400000	-0.00000046)
(0.71500000	-0.00000059)
(0.71600000	-0.00000072)
(0.71700000	-0.00000085)
(0.71800000	-0.00000098)
(0.71900000	-0.00000111)
(0.72000000	-0.00000124)
(0.72100000	-0.00000135)
(0.72200000	-0.00000146)
(0.72300000	-0.00000158)
(0.72400000	-0.00000169)
(0.72500000	-0.00000180)
(0.72600000	-0.00000191)
(0.72700000	-0.00000202)
(0.72800000	-0.00000213)
(0.72900000	-0.00000224)
(0.73000000	-0.00000236)
(0.73100000	-0.00000247)
(0.73200000	-0.00000258)
(0.73300000	-0.00000269)
(0.73400000	-0.00000280)
(0.73500000	-0.00000291)
(0.73600000	-0.00000302)
(0.73700000	-0.00000313)
(0.73800000	-0.00000325)
(0.73900000	-0.00000336)
(0.74000000	-0.00000347)
(0.74100000	-0.00000358)
(0.74200000	-0.00000369)
(0.74300000	-0.00000380)
(0.74400000	-0.00000391)
(0.74500000	-0.00000403)
(0.74600000	-0.00000414)
(0.74700000	-0.00000425)
(0.74800000	-0.00000436)
(0.74900000	-0.00000447)
(0.75000000	-0.00000458)
(0.75100000	-0.00000469)
(0.75200000	-0.00000480)
(0.75300000	-0.00000492)
(0.75400000	-0.00000503)
(0.75500000	-0.00000514)
(0.75600000	-0.00000525)
(0.75700000	-0.00000536)
(0.75800000	-0.00000547)
(0.75900000	-0.00000558)
(0.76000000	-0.00000570)
(0.76100000	-0.00000567)
(0.76200000	-0.00000565)
(0.76300000	-0.00000563)
(0.76400000	-0.00000561)
(0.76500000	-0.00000559)
(0.76600000	-0.00000557)
(0.76700000	-0.00000555)
(0.76800000	-0.00000553)
(0.76900000	-0.00000551)
(0.77000000	-0.00000549)
(0.77100000	-0.00000546)
(0.77200000	-0.00000544)
(0.77300000	-0.00000542)
(0.77400000	-0.00000540)
(0.77500000	-0.00000538)
(0.77600000	-0.00000536)
(0.77700000	-0.00000534)
(0.77800000	-0.00000532)
(0.77900000	-0.00000530)
(0.78000000	-0.00000528)
(0.78100000	-0.00000525)
(0.78200000	-0.00000523)
(0.78300000	-0.00000521)
(0.78400000	-0.00000519)
(0.78500000	-0.00000517)
(0.78600000	-0.00000515)
(0.78700000	-0.00000513)
(0.78800000	-0.00000511)
(0.78900000	-0.00000509)
(0.79000000	-0.00000507)
(0.79100000	-0.00000505)
(0.79200000	-0.00000502)
(0.79300000	-0.00000500)
(0.79400000	-0.00000498)
(0.79500000	-0.00000496)
(0.79600000	-0.00000494)
(0.79700000	-0.00000492)
(0.79800000	-0.00000490)
(0.79900000	-0.00000488)
(0.80000000	-0.00000486)
(0.80100000	-0.00000486)
(0.80200000	-0.00000487)
(0.80300000	-0.00000487)
(0.80400000	-0.00000488)
(0.80500000	-0.00000489)
(0.80600000	-0.00000489)
(0.80700000	-0.00000490)
(0.80800000	-0.00000490)
(0.80900000	-0.00000491)
(0.81000000	-0.00000491)
(0.81100000	-0.00000492)
(0.81200000	-0.00000493)
(0.81300000	-0.00000493)
(0.81400000	-0.00000494)
(0.81500000	-0.00000494)
(0.81600000	-0.00000495)
(0.81700000	-0.00000495)
(0.81800000	-0.00000496)
(0.81900000	-0.00000497)
(0.82000000	-0.00000497)
(0.82100000	-0.00000498)
(0.82200000	-0.00000498)
(0.82300000	-0.00000499)
(0.82400000	-0.00000499)
(0.82500000	-0.00000500)
(0.82600000	-0.00000500)
(0.82700000	-0.00000501)
(0.82800000	-0.00000502)
(0.82900000	-0.00000502)
(0.83000000	-0.00000503)
(0.83100000	-0.00000503)
(0.83200000	-0.00000504)
(0.83300000	-0.00000504)
(0.83400000	-0.00000505)
(0.83500000	-0.00000506)
(0.83600000	-0.00000506)
(0.83700000	-0.00000507)
(0.83800000	-0.00000507)
(0.83900000	-0.00000508)
(0.84000000	-0.00000508)
(0.84100000	-0.00000507)
(0.84200000	-0.00000506)
(0.84300000	-0.00000504)
(0.84400000	-0.00000503)
(0.84500000	-0.00000502)
(0.84600000	-0.00000500)
(0.84700000	-0.00000499)
(0.84800000	-0.00000497)
(0.84900000	-0.00000496)
(0.85000000	-0.00000495)
(0.85100000	-0.00000493)
(0.85200000	-0.00000492)
(0.85300000	-0.00000491)
(0.85400000	-0.00000489)
(0.85500000	-0.00000488)
(0.85600000	-0.00000486)
(0.85700000	-0.00000485)
(0.85800000	-0.00000484)
(0.85900000	-0.00000482)
(0.86000000	-0.00000481)
(0.86100000	-0.00000479)
(0.86200000	-0.00000478)
(0.86300000	-0.00000477)
(0.86400000	-0.00000475)
(0.86500000	-0.00000474)
(0.86600000	-0.00000473)
(0.86700000	-0.00000471)
(0.86800000	-0.00000470)
(0.86900000	-0.00000468)
(0.87000000	-0.00000467)
(0.87100000	-0.00000466)
(0.87200000	-0.00000464)
(0.87300000	-0.00000463)
(0.87400000	-0.00000461)
(0.87500000	-0.00000460)
(0.87600000	-0.00000459)
(0.87700000	-0.00000457)
(0.87800000	-0.00000456)
(0.87900000	-0.00000455)
(0.88000000	-0.00000453)
(0.88100000	-0.00000437)
(0.88200000	-0.00000422)
(0.88300000	-0.00000406)
(0.88400000	-0.00000390)
(0.88500000	-0.00000374)
(0.88600000	-0.00000358)
(0.88700000	-0.00000343)
(0.88800000	-0.00000327)
(0.88900000	-0.00000311)
(0.89000000	-0.00000295)
(0.89100000	-0.00000279)
(0.89200000	-0.00000264)
(0.89300000	-0.00000248)
(0.89400000	-0.00000232)
(0.89500000	-0.00000216)
(0.89600000	-0.00000200)
(0.89700000	-0.00000185)
(0.89800000	-0.00000169)
(0.89900000	-0.00000153)
(0.90000000	-0.00000137)
(0.90100000	-0.00000121)
(0.90200000	-0.00000106)
(0.90300000	-0.00000090)
(0.90400000	-0.00000074)
(0.90500000	-0.00000058)
(0.90600000	-0.00000042)
(0.90700000	-0.00000027)
(0.90800000	-0.00000011)
(0.90900000	0.00000005)
(0.91000000	0.00000021)
(0.91100000	0.00000037)
(0.91200000	0.00000052)
(0.91300000	0.00000068)
(0.91400000	0.00000084)
(0.91500000	0.00000100)
(0.91600000	0.00000116)
(0.91700000	0.00000131)
(0.91800000	0.00000147)
(0.91900000	0.00000163)
(0.92000000	0.00000179)
(0.92100000	0.00000200)
(0.92200000	0.00000220)
(0.92300000	0.00000241)
(0.92400000	0.00000262)
(0.92500000	0.00000283)
(0.92600000	0.00000303)
(0.92700000	0.00000324)
(0.92800000	0.00000345)
(0.92900000	0.00000366)
(0.93000000	0.00000387)
(0.93100000	0.00000407)
(0.93200000	0.00000428)
(0.93300000	0.00000449)
(0.93400000	0.00000470)
(0.93500000	0.00000491)
(0.93600000	0.00000511)
(0.93700000	0.00000532)
(0.93800000	0.00000553)
(0.93900000	0.00000574)
(0.94000000	0.00000594)
(0.94100000	0.00000615)
(0.94200000	0.00000636)
(0.94300000	0.00000657)
(0.94400000	0.00000678)
(0.94500000	0.00000698)
(0.94600000	0.00000719)
(0.94700000	0.00000740)
(0.94800000	0.00000761)
(0.94900000	0.00000781)
(0.95000000	0.00000802)
(0.95100000	0.00000823)
(0.95200000	0.00000844)
(0.95300000	0.00000865)
(0.95400000	0.00000885)
(0.95500000	0.00000906)
(0.95600000	0.00000927)
(0.95700000	0.00000948)
(0.95800000	0.00000968)
(0.95900000	0.00000989)
(0.96000000	0.00001010)
(0.96100000	0.00001116)
(0.96200000	0.00001222)
(0.96300000	0.00001329)
(0.96400000	0.00001435)
(0.96500000	0.00001541)
(0.96600000	0.00001647)
(0.96700000	0.00001753)
(0.96800000	0.00001860)
(0.96900000	0.00001966)
(0.97000000	0.00002072)
(0.97100000	0.00002178)
(0.97200000	0.00002284)
(0.97300000	0.00002391)
(0.97400000	0.00002497)
(0.97500000	0.00002603)
(0.97600000	0.00002709)
(0.97700000	0.00002815)
(0.97800000	0.00002922)
(0.97900000	0.00003028)
(0.98000000	0.00003134)
(0.98100000	0.00003240)
(0.98200000	0.00003346)
(0.98300000	0.00003453)
(0.98400000	0.00003559)
(0.98500000	0.00003665)
(0.98600000	0.00003771)
(0.98700000	0.00003877)
(0.98800000	0.00003984)
(0.98900000	0.00004090)
(0.99000000	0.00004196)
(0.99100000	0.00004302)
(0.99200000	0.00004408)
(0.99300000	0.00004515)
(0.99400000	0.00004621)
(0.99500000	0.00004727)
(0.99600000	0.00004833)
(0.99700000	0.00004939)
(0.99800000	0.00005046)
(0.99900000	0.00005152)
(1.00000000	0.00005258)
);
