/*--------------------------------*- C++ -*----------------------------------*\
| =========                 |                                                 |
| \\      /  F ield         | OpenFOAM: The Open Source CFD Toolbox           |
|  \\    /   O peration     | Version:  2506                                  |
|   \\  /    A nd           | Website:  www.openfoam.com                      |
|    \\/     M anipulation  |                                                 |
\*---------------------------------------------------------------------------*/
// * * * * * * * * * * * * * * * * * * * * * * * * * * * * * * * * * * * * * //
FoamFile
{
    version         2;
    format          ascii;
    class           volScalarField;
    location        "0";
    object          p;
}

dimensions      [ 0 2 -2 0 0 0 0 ];

internalField   uniform 0;

boundaryField
{
    artery
    {
        type            zeroGradient;
    }
    inlet
    {
        type            zeroGradient;
    }
    outlet
    {
        type            windkesselOutletPressure;
        Rd              1.4152e+08;
        Pd              0;
        rho             1060;
        windkesselModel WK3;
        Rp              1.3997e+07;
        C               1e-08;
        diffScheme      firstOrder;
        relaxFactor     0.5;
        useLaggedFlux   true;
        flipFluxSign    false;
        value           uniform 0;
        backflowStabilization true;
        penaltyFactor   1;
        smoothingWidth  0.1;
        U               U;
    }
    Lc1
    {
        type            coronaryOutletPressure;
        Ra              1.01792e+10;
        Ram             1.65412e+10;
        Rv              5.08959e+09;
        Rvm             0;
        Ca              8.64819e-12;
        Cim             6.99717e-11;
        rho             1060;
        PimFile         "constant/Pim.dat";
        PimPeriod       1;
        PimScaling      1.5;
        diffScheme      BDF1;
        useLaggedFlux   true;
        relaxFactor     0.6;
        flipFluxSign    false;
        pimMode         transmural;
        transmuralOnCa  false;
        value           uniform 0;
        backflowStabilization true;
        penaltyFactor   1;
        smoothingWidth  0.1;
        U               U;
        firstCycleRamp  true;
    }
    Lc1_sub1
    {
        type            coronaryOutletPressure;
        Ra              2.52233e+10;
        Ram             4.09879e+10;
        Rv              1.26117e+10;
        Rvm             0;
        Ca              3.49009e-12;
        Cim             2.8238e-11;
        PimFile         "constant/Pim.dat";
        PimPeriod       1;
        PimScaling      1.5;
        rho             1060;
        pimMode         transmural;
        transmuralOnCa  false;
        diffScheme      BDF1;
        useLaggedFlux   true;
        relaxFactor     0.6;
        flipFluxSign    false;
        value           uniform 0;
        backflowStabilization true;
        penaltyFactor   1;
        smoothingWidth  0.1;
        U               U;
        firstCycleRamp  true;
    }
    Lc1_sub2
    {
        type            coronaryOutletPressure;
        Ra              1.29102e+10;
        Ram             2.09791e+10;
        Rv              6.45511e+09;
        Rvm             0;
        Ca              6.81875e-12;
        Cim             5.51699e-11;
        PimFile         "constant/Pim.dat";
        PimPeriod       1;
        PimScaling      1.5;
        rho             1060;
        pimMode         transmural;
        transmuralOnCa  false;
        diffScheme      BDF1;
        useLaggedFlux   true;
        relaxFactor     0.6;
        flipFluxSign    false;
        value           uniform 0;
        backflowStabilization true;
        penaltyFactor   1;
        smoothingWidth  0.1;
        U               U;
        firstCycleRamp  true;
    }
    Lc1_sub3
    {
        type            coronaryOutletPressure;
        Ra              2.06637e+10;
        Ram             3.35785e+10;
        Rv              1.03318e+10;
        Rvm             0;
        Ca              4.26021e-12;
        Cim             3.44689e-11;
        PimFile         "constant/Pim.dat";
        PimPeriod       1;
        PimScaling      1.5;
        rho             1060;
        pimMode         transmural;
        transmuralOnCa  false;
        diffScheme      BDF1;
        useLaggedFlux   true;
        relaxFactor     0.6;
        flipFluxSign    false;
        value           uniform 0;
        backflowStabilization true;
        penaltyFactor   1;
        smoothingWidth  0.1;
        U               U;
        firstCycleRamp  true;
    }
    Lc2
    {
        type            coronaryOutletPressure;
        Ra              7.06077e+09;
        Ram             1.14738e+10;
        Rv              3.53038e+09;
        Rvm             0;
        Ca              1.24677e-11;
        Cim             1e-10;
        PimFile         "constant/Pim.dat";
        PimPeriod       1;
        PimScaling      1.5;
        rho             1060;
        pimMode         transmural;
        transmuralOnCa  false;
        diffScheme      BDF1;
        useLaggedFlux   true;
        relaxFactor     0.6;
        flipFluxSign    false;
        value           uniform 0;
        backflowStabilization true;
        penaltyFactor   1;
        smoothingWidth  0.1;
        U               U;
        firstCycleRamp  true;
    }
    Lc2_sub1
    {
        type            coronaryOutletPressure;
        Ra              2.24853e+10;
        Ram             3.65386e+10;
        Rv              1.12427e+10;
        Rvm             0;
        Ca              3.91507e-12;
        Cim             3.16765e-11;
        PimFile         "constant/Pim.dat";
        PimPeriod       1;
        PimScaling      1.5;
        rho             1060;
        pimMode         transmural;
        transmuralOnCa  false;
        diffScheme      BDF1;
        useLaggedFlux   true;
        relaxFactor     0.6;
        flipFluxSign    false;
        value           uniform 0;
        backflowStabilization true;
        penaltyFactor   1;
        smoothingWidth  0.1;
        U               U;
        firstCycleRamp  true;
    }
    Rc1
    {
        type            coronaryOutletPressure;
        Ra              6.09837e+09;
        Ram             9.90985e+09;
        Rv              1.12427e+10;
        Rvm             0;
        Ca              1.16388e-11;
        Cim             3.16765e-11;
        PimFile         "constant/Pim.dat";
        PimPeriod       1;
        PimScaling      0.5;
        rho             1060;
        pimMode         transmural;
        transmuralOnCa  false;
        diffScheme      BDF1;
        useLaggedFlux   true;
        relaxFactor     0.6;
        flipFluxSign    false;
        value           uniform 0;
        backflowStabilization true;
        penaltyFactor   1;
        smoothingWidth  0.1;
        U               U;
        firstCycleRamp  true;
    }
    Rc1_sub1
    {
        type            coronaryOutletPressure;
        Ra              9.7205e+09;
        Ram             1.57958e+10;
        Rv              4.86025e+09;
        Rvm             0;
        Ca              7.30184e-12;
        Cim             5.90786e-11;
        PimFile         "constant/Pim.dat";
        PimPeriod       1;
        PimScaling      0.5;
        rho             1060;
        pimMode         transmural;
        transmuralOnCa  false;
        diffScheme      BDF1;
        useLaggedFlux   true;
        relaxFactor     0.6;
        flipFluxSign    false;
        value           uniform 0;
        backflowStabilization true;
        penaltyFactor   1;
        smoothingWidth  0.1;
        U               U;
        firstCycleRamp  true;
    }
    Rc1_sub2
    {
        type            coronaryOutletPressure;
        Ra              8.29236e+09;
        Ram             1.34751e+10;
        Rv              4.14618e+09;
        Rvm             0;
        Ca              8.55939e-12;
        Cim             6.92532e-11;
        PimFile         "constant/Pim.dat";
        PimPeriod       1;
        rho             1060;
        pimMode         transmural;
        transmuralOnCa  false;
        PimScaling      0.5;
        diffScheme      BDF1;
        useLaggedFlux   true;
        relaxFactor     0.6;
        flipFluxSign    false;
        value           uniform 0;
        backflowStabilization true;
        penaltyFactor   1;
        smoothingWidth  0.1;
        U               U;
        firstCycleRamp  true;
    }
}


// ************************************************************************* //
